New Line.l(r:p1rdt82lv-p1rlv85) Units=km Length=0.0410015 bus1=p1rdt82lv.1.2 bus2=p1rlv85.1.2 switch=n enabled=y phases=2 Linecode=1P_OH_AL_4/0_Zuzara_0_416_0_2_2_2_2_2_2_2_2_2_2_2_2_2_2_2_2_2_2_2_2_2_2_2_2_2_2_2_2_2

New Line.l(r:p1rdt82lv-p1rlv7962) Units=km Length=0.0410015 bus1=p1rdt82lv.1.2 bus2=p1rlv7962.1.2 switch=n enabled=y phases=2 Linecode=1P_OH_AL_4/0_Zuzara_0_416_0_2_2_2_2_2_2_2_2_2_2_2_2_2_2_2_2_2_2_2_2_2_2_2_2_2_2_2_2_2

New Line.l(r:p1rdt83lv-p1rlv86) Units=km Length=0.0588624 bus1=p1rdt83lv.1.2 bus2=p1rlv86.1.2 switch=n enabled=y phases=2 Linecode=1P_OH_AL_4/0_Zuzara_0_416_0_2_2_2_2_2_2_2_2_2_2_2_2_2_2_2_2_2_2_2_2_2_2_2_2_2_2_2_2_2

New Line.l(r:p1rdt83lv-p1rlv5741) Units=km Length=0.0410433 bus1=p1rdt83lv.1.2 bus2=p1rlv5741.1.2 switch=n enabled=y phases=2 Linecode=1P_OH_AL_4/0_Zuzara_0_416_0_2_2_2_2_2_2_2_2_2_2_2_2_2_2_2_2_2_2_2_2_2_2_2_2_2_2_2_2_2

New Line.l(r:p1rdt83lv-p1rlv12173) Units=km Length=0.034493 bus1=p1rdt83lv.1.2 bus2=p1rlv12173.1.2 switch=n enabled=y phases=2 Linecode=1P_OH_AL_4/0_Zuzara_0_416_0_2_2_2_2_2_2_2_2_2_2_2_2_2_2_2_2_2_2_2_2_2_2_2_2_2_2_2_2_2

New Line.l(r:p1rdt203lv-p1rlv210) Units=km Length=0.00698474 bus1=p1rdt203lv.1.2 bus2=p1rlv210.1.2 switch=n enabled=y phases=2 Linecode=1P_OH_AL_2/0_Rucina_0_416_0_2_2_2_2_2_2_2_2_2_2_2_2_2_2_2_2_2_2_2_2_2_2_2_2_2_2_2_2_2

New Line.l(r:p1rdt203lv-p1rlv6373) Units=km Length=0.00698474 bus1=p1rdt203lv.1.2 bus2=p1rlv6373.1.2 switch=n enabled=y phases=2 Linecode=1P_OH_AL_2/0_Rucina_0_416_0_2_2_2_2_2_2_2_2_2_2_2_2_2_2_2_2_2_2_2_2_2_2_2_2_2_2_2_2_2

New Line.l(r:p1rdt215lv-p1rlv222) Units=km Length=0.0680648 bus1=p1rdt215lv.1.2 bus2=p1rlv222.1.2 switch=n enabled=y phases=2 Linecode=1P_OH_AL_4/0_Zuzara_0_416_0_2_2_2_2_2_2_2_2_2_2_2_2_2_2_2_2_2_2_2_2_2_2_2_2_2_2_2_2_2

New Line.l(r:p1rdt215lv-p1rlv2650) Units=km Length=0.0680648 bus1=p1rdt215lv.1.2 bus2=p1rlv2650.1.2 switch=n enabled=y phases=2 Linecode=1P_OH_AL_4/0_Zuzara_0_416_0_2_2_2_2_2_2_2_2_2_2_2_2_2_2_2_2_2_2_2_2_2_2_2_2_2_2_2_2_2

New Line.l(r:p1rdt217lv-p1rlv224) Units=km Length=0.03616 bus1=p1rdt217lv.1.2 bus2=p1rlv224.1.2 switch=n enabled=y phases=2 Linecode=1P_OH_AL_4/0_Zuzara_0_416_0_2_2_2_2_2_2_2_2_2_2_2_2_2_2_2_2_2_2_2_2_2_2_2_2_2_2_2_2_2

New Line.l(r:p1rdt454lv-p1rlv464) Units=km Length=0.00901098 bus1=p1rdt454lv.1.2 bus2=p1rlv464.1.2 switch=n enabled=y phases=2 Linecode=1P_OH_AL_2/0_Rucina_0_416_0_2_2_2_2_2_2_2_2_2_2_2_2_2_2_2_2_2_2_2_2_2_2_2_2_2_2_2_2_2

New Line.l(r:p1rdt454lv-p1rlv5997) Units=km Length=0.030529 bus1=p1rdt454lv.1.2 bus2=p1rlv5997.1.2 switch=n enabled=y phases=2 Linecode=1P_OH_AL_4/0_Zuzara_0_416_0_2_2_2_2_2_2_2_2_2_2_2_2_2_2_2_2_2_2_2_2_2_2_2_2_2_2_2_2_2

New Line.l(r:p1rdt454lv-p1rlv7283) Units=km Length=0.0257695 bus1=p1rdt454lv.1.2 bus2=p1rlv7283.1.2 switch=n enabled=y phases=2 Linecode=1P_OH_AL_2/0_Rucina_0_416_0_2_2_2_2_2_2_2_2_2_2_2_2_2_2_2_2_2_2_2_2_2_2_2_2_2_2_2_2_2

New Line.l(r:p1rdt461lv-p1rlv471) Units=km Length=0.023695600000000004 bus1=p1rdt461lv.1.2 bus2=p1rlv471.1.2 switch=n enabled=y phases=2 Linecode=1P_OH_AL_2/0_Rucina_0_416_0_2_2_2_2_2_2_2_2_2_2_2_2_2_2_2_2_2_2_2_2_2_2_2_2_2_2_2_2_2

New Line.l(r:p1rdt461lv-p1rlv2785) Units=km Length=0.0780253 bus1=p1rdt461lv.1.2 bus2=p1rlv2785.1.2 switch=n enabled=y phases=2 Linecode=1P_OH_AL_4/0_Zuzara_0_416_0_2_2_2_2_2_2_2_2_2_2_2_2_2_2_2_2_2_2_2_2_2_2_2_2_2_2_2_2_2

New Line.l(r:p1rdt461lv-p1rlv12684) Units=km Length=0.05435310000000001 bus1=p1rdt461lv.1.2 bus2=p1rlv12684.1.2 switch=n enabled=y phases=2 Linecode=1P_OH_AL_4/0_Zuzara_0_416_0_2_2_2_2_2_2_2_2_2_2_2_2_2_2_2_2_2_2_2_2_2_2_2_2_2_2_2_2_2

New Line.l(r:p1rdt468lv-p1rlv479) Units=km Length=0.019932300000000003 bus1=p1rdt468lv.1.2 bus2=p1rlv479.1.2 switch=n enabled=y phases=2 Linecode=1P_OH_AL_2/0_Rucina_0_416_0_2_2_2_2_2_2_2_2_2_2_2_2_2_2_2_2_2_2_2_2_2_2_2_2_2_2_2_2_2

New Line.l(r:p1rdt468lv-p1rlv4670) Units=km Length=0.019932300000000003 bus1=p1rdt468lv.1.2 bus2=p1rlv4670.1.2 switch=n enabled=y phases=2 Linecode=1P_OH_AL_2/0_Rucina_0_416_0_2_2_2_2_2_2_2_2_2_2_2_2_2_2_2_2_2_2_2_2_2_2_2_2_2_2_2_2_2

New Line.l(r:p1rdt469lv-p1rlv480) Units=km Length=0.0348857 bus1=p1rdt469lv.1.2 bus2=p1rlv480.1.2 switch=n enabled=y phases=2 Linecode=1P_OH_AL_4/0_Zuzara_0_416_0_2_2_2_2_2_2_2_2_2_2_2_2_2_2_2_2_2_2_2_2_2_2_2_2_2_2_2_2_2

New Line.l(r:p1rdt470lv-p1rlv481) Units=km Length=0.0219465 bus1=p1rdt470lv.1.2 bus2=p1rlv481.1.2 switch=n enabled=y phases=2 Linecode=1P_OH_AL_2/0_Rucina_0_416_0_2_2_2_2_2_2_2_2_2_2_2_2_2_2_2_2_2_2_2_2_2_2_2_2_2_2_2_2_2

New Line.l(r:p1rdm1114-p1rlv1290) Units=km Length=0.0333292 bus1=p1rdm1114.1.2 bus2=p1rlv1290.1.2 switch=n enabled=y phases=2 Linecode=1P_OH_AL_4/0_Zuzara_0_416_0_2_2_2_2_2_2_2_2_2_2_2_2_2_2_2_2_2_2_2_2_2_2_2_2_2_2_2_2_2

New Line.l(r:p1rdm1114-p1rdt470lv) Units=km Length=0.0501384 bus1=p1rdt470lv.1.2 bus2=p1rdm1114.1.2 switch=n enabled=y phases=2 Linecode=1P_OH_AL_4/0_Zuzara_0_416_0_2_2_2_2_2_2_2_2_2_2_2_2_2_2_2_2_2_2_2_2_2_2_2_2_2_2_2_2_2

New Line.l(r:p1rdt471lv-p1rlv482) Units=km Length=0.0184279 bus1=p1rdt471lv.1.2 bus2=p1rlv482.1.2 switch=n enabled=y phases=2 Linecode=1P_OH_AL_2/0_Rucina_0_416_0_2_2_2_2_2_2_2_2_2_2_2_2_2_2_2_2_2_2_2_2_2_2_2_2_2_2_2_2_2

New Line.l(r:p1rdt471lv-p1rlv1968) Units=km Length=0.0489586 bus1=p1rdt471lv.1.2 bus2=p1rlv1968.1.2 switch=n enabled=y phases=2 Linecode=1P_OH_AL_4/0_Zuzara_0_416_0_2_2_2_2_2_2_2_2_2_2_2_2_2_2_2_2_2_2_2_2_2_2_2_2_2_2_2_2_2

New Line.l(r:p1rdt471lv-p1rlv7161) Units=km Length=0.0667233 bus1=p1rdt471lv.1.2 bus2=p1rlv7161.1.2 switch=n enabled=y phases=2 Linecode=1P_OH_AL_4/0_Zuzara_0_416_0_2_2_2_2_2_2_2_2_2_2_2_2_2_2_2_2_2_2_2_2_2_2_2_2_2_2_2_2_2

New Line.l(r:p1rdt480lv-p1rlv492) Units=km Length=0.0100052 bus1=p1rdt480lv.1.2 bus2=p1rlv492.1.2 switch=n enabled=y phases=2 Linecode=1P_OH_AL_2/0_Rucina_0_416_0_2_2_2_2_2_2_2_2_2_2_2_2_2_2_2_2_2_2_2_2_2_2_2_2_2_2_2_2_2

New Line.l(r:p1rdt581lv-p1rlv596) Units=km Length=0.0504767 bus1=p1rdt581lv.1.2 bus2=p1rlv596.1.2 switch=n enabled=y phases=2 Linecode=1P_OH_AL_4/0_Zuzara_0_416_0_2_2_2_2_2_2_2_2_2_2_2_2_2_2_2_2_2_2_2_2_2_2_2_2_2_2_2_2_2

New Line.l(r:p1rdt581lv-p1rlv3143) Units=km Length=0.028049 bus1=p1rdt581lv.1.2 bus2=p1rlv3143.1.2 switch=n enabled=y phases=2 Linecode=1P_OH_AL_4/0_Zuzara_0_416_0_2_2_2_2_2_2_2_2_2_2_2_2_2_2_2_2_2_2_2_2_2_2_2_2_2_2_2_2_2

New Line.l(r:p1rdm1362-p1rlv886) Units=km Length=0.08571180000000002 bus1=p1rdm1362.1.2 bus2=p1rlv886.1.2 switch=n enabled=y phases=2 Linecode=1P_OH_AL_4/0_Zuzara_0_416_0_2_2_2_2_2_2_2_2_2_2_2_2_2_2_2_2_2_2_2_2_2_2_2_2_2_2_2_2_2

New Line.l(r:p1rdm1362-p1rdt581lv) Units=km Length=0.019652900000000004 bus1=p1rdt581lv.1.2 bus2=p1rdm1362.1.2 switch=n enabled=y phases=2 Linecode=1P_OH_AL_2/0_Rucina_0_416_0_2_2_2_2_2_2_2_2_2_2_2_2_2_2_2_2_2_2_2_2_2_2_2_2_2_2_2_2_2

New Line.l(r:p1rdt596lv-p1rlv612) Units=km Length=0.0239319 bus1=p1rdt596lv.1.2 bus2=p1rlv612.1.2 switch=n enabled=y phases=2 Linecode=1P_OH_AL_2/0_Rucina_0_416_0_2_2_2_2_2_2_2_2_2_2_2_2_2_2_2_2_2_2_2_2_2_2_2_2_2_2_2_2_2

New Line.l(r:p1rdt596lv-p1rlv4960) Units=km Length=0.0620848 bus1=p1rdt596lv.1.2 bus2=p1rlv4960.1.2 switch=n enabled=y phases=2 Linecode=1P_OH_AL_4/0_Zuzara_0_416_0_2_2_2_2_2_2_2_2_2_2_2_2_2_2_2_2_2_2_2_2_2_2_2_2_2_2_2_2_2

New Line.l(r:p1rdm1391-p1rlv613) Units=km Length=0.0267718 bus1=p1rdm1391.1.2 bus2=p1rlv613.1.2 switch=n enabled=y phases=2 Linecode=1P_OH_AL_2/0_Rucina_0_416_0_2_2_2_2_2_2_2_2_2_2_2_2_2_2_2_2_2_2_2_2_2_2_2_2_2_2_2_2_2

New Line.l(r:p1rdm1391-p1rdt597lv) Units=km Length=0.0194134 bus1=p1rdt597lv.1.2 bus2=p1rdm1391.1.2 switch=n enabled=y phases=2 Linecode=1P_OH_AL_2/0_Rucina_0_416_0_2_2_2_2_2_2_2_2_2_2_2_2_2_2_2_2_2_2_2_2_2_2_2_2_2_2_2_2_2

New Line.l(r:p1rdm1392-p1rlv10499) Units=km Length=0.0662066 bus1=p1rdm1392.1.2 bus2=p1rlv10499.1.2 switch=n enabled=y phases=2 Linecode=1P_OH_AL_4/0_Zuzara_0_416_0_2_2_2_2_2_2_2_2_2_2_2_2_2_2_2_2_2_2_2_2_2_2_2_2_2_2_2_2_2

New Line.l(r:p1rdm1392-p1rdt597lv) Units=km Length=0.0193998 bus1=p1rdt597lv.1.2 bus2=p1rdm1392.1.2 switch=n enabled=y phases=2 Linecode=1P_OH_AL_2/0_Rucina_0_416_0_2_2_2_2_2_2_2_2_2_2_2_2_2_2_2_2_2_2_2_2_2_2_2_2_2_2_2_2_2

New Line.l(r:p1rdt598lv-p1rlv614) Units=km Length=0.0457307 bus1=p1rdt598lv.1.2 bus2=p1rlv614.1.2 switch=n enabled=y phases=2 Linecode=1P_OH_AL_4/0_Zuzara_0_416_0_2_2_2_2_2_2_2_2_2_2_2_2_2_2_2_2_2_2_2_2_2_2_2_2_2_2_2_2_2

New Line.l(r:p1rdt599lv-p1rlv615) Units=km Length=0.001 bus1=p1rdt599lv.1.2 bus2=p1rlv615.1.2 switch=n enabled=y phases=2 Linecode=1P_OH_AL_4_Periwinkle_0_416_0_2_2_2_2_2_2_2_2_2_2_2_2_2_2_2_2_2_2_2_2_2_2_2_2_2_2_2_2_2

New Line.l(r:p1rdt604lv-p1rlv620) Units=km Length=0.0443276 bus1=p1rdt604lv.1.2 bus2=p1rlv620.1.2 switch=n enabled=y phases=2 Linecode=1P_OH_AL_4/0_Zuzara_0_416_0_2_2_2_2_2_2_2_2_2_2_2_2_2_2_2_2_2_2_2_2_2_2_2_2_2_2_2_2_2

New Line.l(r:p1rdt717lv-p1rlv749) Units=km Length=0.046136 bus1=p1rdt717lv.1.2 bus2=p1rlv749.1.2 switch=n enabled=y phases=2 Linecode=1P_OH_AL_4/0_Zuzara_0_416_0_2_2_2_2_2_2_2_2_2_2_2_2_2_2_2_2_2_2_2_2_2_2_2_2_2_2_2_2_2

New Line.l(r:p1rdm1647-p1rlv1557) Units=km Length=0.0559446 bus1=p1rdm1647.1.2 bus2=p1rlv1557.1.2 switch=n enabled=y phases=2 Linecode=1P_OH_AL_4/0_Zuzara_0_416_0_2_2_2_2_2_2_2_2_2_2_2_2_2_2_2_2_2_2_2_2_2_2_2_2_2_2_2_2_2

New Line.l(r:p1rdm1647-p1rdt717lv) Units=km Length=0.0157147 bus1=p1rdt717lv.1.2 bus2=p1rdm1647.1.2 switch=n enabled=y phases=2 Linecode=1P_OH_AL_2/0_Rucina_0_416_0_2_2_2_2_2_2_2_2_2_2_2_2_2_2_2_2_2_2_2_2_2_2_2_2_2_2_2_2_2

New Line.l(r:p1rdt718lv-p1rlv750) Units=km Length=0.103484 bus1=p1rdt718lv.1.2 bus2=p1rlv750.1.2 switch=n enabled=y phases=2 Linecode=1P_OH_AL_4/0_Zuzara_0_416_0_2_2_2_2_2_2_2_2_2_2_2_2_2_2_2_2_2_2_2_2_2_2_2_2_2_2_2_2_2

New Line.l(r:p1rdt718lv-p1rlv1807) Units=km Length=0.0850493 bus1=p1rdt718lv.1.2 bus2=p1rlv1807.1.2 switch=n enabled=y phases=2 Linecode=1P_OH_AL_4/0_Zuzara_0_416_0_2_2_2_2_2_2_2_2_2_2_2_2_2_2_2_2_2_2_2_2_2_2_2_2_2_2_2_2_2

New Line.l(r:p1rdt719lv-p1rlv751) Units=km Length=0.012323 bus1=p1rdt719lv.1.2 bus2=p1rlv751.1.2 switch=n enabled=y phases=2 Linecode=1P_OH_AL_2/0_Rucina_0_416_0_2_2_2_2_2_2_2_2_2_2_2_2_2_2_2_2_2_2_2_2_2_2_2_2_2_2_2_2_2

New Line.l(r:p1rdt719lv-p1rlv9824) Units=km Length=0.012323 bus1=p1rdt719lv.1.2 bus2=p1rlv9824.1.2 switch=n enabled=y phases=2 Linecode=1P_OH_AL_2/0_Rucina_0_416_0_2_2_2_2_2_2_2_2_2_2_2_2_2_2_2_2_2_2_2_2_2_2_2_2_2_2_2_2_2

New Line.l(r:p1rdt733lv-p1rlv765) Units=km Length=0.05728370000000001 bus1=p1rdt733lv.1.2 bus2=p1rlv765.1.2 switch=n enabled=y phases=2 Linecode=1P_OH_AL_4/0_Zuzara_0_416_0_2_2_2_2_2_2_2_2_2_2_2_2_2_2_2_2_2_2_2_2_2_2_2_2_2_2_2_2_2

New Line.l(r:p1rdt733lv-p1rlv8492) Units=km Length=0.0310216 bus1=p1rdt733lv.1.2 bus2=p1rlv8492.1.2 switch=n enabled=y phases=2 Linecode=1P_OH_AL_4/0_Zuzara_0_416_0_2_2_2_2_2_2_2_2_2_2_2_2_2_2_2_2_2_2_2_2_2_2_2_2_2_2_2_2_2

New Line.l(r:p1rdt733lv-p1rlv8905) Units=km Length=0.0805685 bus1=p1rdt733lv.1.2 bus2=p1rlv8905.1.2 switch=n enabled=y phases=2 Linecode=1P_OH_AL_4/0_Zuzara_0_416_0_2_2_2_2_2_2_2_2_2_2_2_2_2_2_2_2_2_2_2_2_2_2_2_2_2_2_2_2_2

New Line.l(r:p1rdt734lv-p1rlv766) Units=km Length=0.0418252 bus1=p1rdt734lv.1.2 bus2=p1rlv766.1.2 switch=n enabled=y phases=2 Linecode=1P_OH_AL_4/0_Zuzara_0_416_0_2_2_2_2_2_2_2_2_2_2_2_2_2_2_2_2_2_2_2_2_2_2_2_2_2_2_2_2_2

New Line.l(r:p1rdt735lv-p1rlv767) Units=km Length=0.0574023 bus1=p1rdt735lv.1.2 bus2=p1rlv767.1.2 switch=n enabled=y phases=2 Linecode=1P_OH_AL_4/0_Zuzara_0_416_0_2_2_2_2_2_2_2_2_2_2_2_2_2_2_2_2_2_2_2_2_2_2_2_2_2_2_2_2_2

New Line.l(r:p1rdt735lv-p1rlv1168) Units=km Length=0.034031900000000004 bus1=p1rdt735lv.1.2 bus2=p1rlv1168.1.2 switch=n enabled=y phases=2 Linecode=1P_OH_AL_4/0_Zuzara_0_416_0_2_2_2_2_2_2_2_2_2_2_2_2_2_2_2_2_2_2_2_2_2_2_2_2_2_2_2_2_2

New Line.l(r:p1rdt735lv-p1rlv7720) Units=km Length=0.10082 bus1=p1rdt735lv.1.2 bus2=p1rlv7720.1.2 switch=n enabled=y phases=2 Linecode=1P_OH_AL_4/0_Zuzara_0_416_0_2_2_2_2_2_2_2_2_2_2_2_2_2_2_2_2_2_2_2_2_2_2_2_2_2_2_2_2_2

New Line.l(r:p1rdt735lv-p1rlv11762) Units=km Length=0.0218252 bus1=p1rdt735lv.1.2 bus2=p1rlv11762.1.2 switch=n enabled=y phases=2 Linecode=1P_OH_AL_2/0_Rucina_0_416_0_2_2_2_2_2_2_2_2_2_2_2_2_2_2_2_2_2_2_2_2_2_2_2_2_2_2_2_2_2

New Line.l(r:p1rdt737lv-p1rlv769) Units=km Length=0.0482243 bus1=p1rdt737lv.1.2 bus2=p1rlv769.1.2 switch=n enabled=y phases=2 Linecode=1P_OH_AL_4/0_Zuzara_0_416_0_2_2_2_2_2_2_2_2_2_2_2_2_2_2_2_2_2_2_2_2_2_2_2_2_2_2_2_2_2

New Line.l(r:p1rdt737lv-p1rlv7163) Units=km Length=0.0482243 bus1=p1rdt737lv.1.2 bus2=p1rlv7163.1.2 switch=n enabled=y phases=2 Linecode=1P_OH_AL_4/0_Zuzara_0_416_0_2_2_2_2_2_2_2_2_2_2_2_2_2_2_2_2_2_2_2_2_2_2_2_2_2_2_2_2_2

New Line.l(r:p1rdt739lv-p1rlv3578) Units=km Length=0.0411128 bus1=p1rdt739lv.1.2 bus2=p1rlv3578.1.2 switch=n enabled=y phases=2 Linecode=1P_OH_AL_4/0_Zuzara_0_416_0_2_2_2_2_2_2_2_2_2_2_2_2_2_2_2_2_2_2_2_2_2_2_2_2_2_2_2_2_2

New Line.l(r:p1rdm1692-p1rlv771) Units=km Length=0.019607500000000003 bus1=p1rdm1692.1.2 bus2=p1rlv771.1.2 switch=n enabled=y phases=2 Linecode=1P_OH_AL_2/0_Rucina_0_416_0_2_2_2_2_2_2_2_2_2_2_2_2_2_2_2_2_2_2_2_2_2_2_2_2_2_2_2_2_2

New Line.l(r:p1rdm1692-p1rdt739lv) Units=km Length=0.0373325 bus1=p1rdt739lv.1.2 bus2=p1rdm1692.1.2 switch=n enabled=y phases=2 Linecode=1P_OH_AL_4/0_Zuzara_0_416_0_2_2_2_2_2_2_2_2_2_2_2_2_2_2_2_2_2_2_2_2_2_2_2_2_2_2_2_2_2

New Line.l(r:p1rdt740lv-p1rlv772) Units=km Length=0.00807582 bus1=p1rdt740lv.1.2 bus2=p1rlv772.1.2 switch=n enabled=y phases=2 Linecode=1P_OH_AL_2/0_Rucina_0_416_0_2_2_2_2_2_2_2_2_2_2_2_2_2_2_2_2_2_2_2_2_2_2_2_2_2_2_2_2_2

New Line.l(r:p1rdm1695-p1rlv6257) Units=km Length=0.0458363 bus1=p1rdm1695.1.2 bus2=p1rlv6257.1.2 switch=n enabled=y phases=2 Linecode=1P_OH_AL_4/0_Zuzara_0_416_0_2_2_2_2_2_2_2_2_2_2_2_2_2_2_2_2_2_2_2_2_2_2_2_2_2_2_2_2_2

New Line.l(r:p1rdm1695-p1rdt740lv) Units=km Length=0.0156629 bus1=p1rdt740lv.1.2 bus2=p1rdm1695.1.2 switch=n enabled=y phases=2 Linecode=1P_OH_AL_2/0_Rucina_0_416_0_2_2_2_2_2_2_2_2_2_2_2_2_2_2_2_2_2_2_2_2_2_2_2_2_2_2_2_2_2

New Line.l(r:p1rdt741lv-p1rlv773) Units=km Length=0.0508796 bus1=p1rdt741lv.1.2 bus2=p1rlv773.1.2 switch=n enabled=y phases=2 Linecode=1P_OH_AL_4/0_Zuzara_0_416_0_2_2_2_2_2_2_2_2_2_2_2_2_2_2_2_2_2_2_2_2_2_2_2_2_2_2_2_2_2

New Line.l(r:p1rdt742lv-p1rlv774) Units=km Length=0.0442362 bus1=p1rdt742lv.1.2 bus2=p1rlv774.1.2 switch=n enabled=y phases=2 Linecode=1P_OH_AL_4/0_Zuzara_0_416_0_2_2_2_2_2_2_2_2_2_2_2_2_2_2_2_2_2_2_2_2_2_2_2_2_2_2_2_2_2

New Line.l(r:p1rdt742lv-p1rlv4526) Units=km Length=0.058572 bus1=p1rdt742lv.1.2 bus2=p1rlv4526.1.2 switch=n enabled=y phases=2 Linecode=1P_OH_AL_4/0_Zuzara_0_416_0_2_2_2_2_2_2_2_2_2_2_2_2_2_2_2_2_2_2_2_2_2_2_2_2_2_2_2_2_2

New Line.l(r:p1rdt742lv-p1rlv11615) Units=km Length=0.0624531 bus1=p1rdt742lv.1.2 bus2=p1rlv11615.1.2 switch=n enabled=y phases=2 Linecode=1P_OH_AL_4/0_Zuzara_0_416_0_2_2_2_2_2_2_2_2_2_2_2_2_2_2_2_2_2_2_2_2_2_2_2_2_2_2_2_2_2

New Line.l(r:p1rdm1698-p1rlv1830) Units=km Length=0.0028796 bus1=p1rdm1698.1.2 bus2=p1rlv1830.1.2 switch=n enabled=y phases=2 Linecode=1P_OH_AL_4_Periwinkle_0_416_0_2_2_2_2_2_2_2_2_2_2_2_2_2_2_2_2_2_2_2_2_2_2_2_2_2_2_2_2_2

New Line.l(r:p1rdm1700-p1rlv10365) Units=km Length=0.0183234 bus1=p1rdm1700.1.2 bus2=p1rlv10365.1.2 switch=n enabled=y phases=2 Linecode=1P_OH_AL_2/0_Rucina_0_416_0_2_2_2_2_2_2_2_2_2_2_2_2_2_2_2_2_2_2_2_2_2_2_2_2_2_2_2_2_2

New Line.l(r:p1rdm1698-p1rdm1700) Units=km Length=0.0173769 bus1=p1rdm1698.1.2 bus2=p1rdm1700.1.2 switch=n enabled=y phases=2 Linecode=1P_OH_AL_2/0_Rucina_0_416_0_2_2_2_2_2_2_2_2_2_2_2_2_2_2_2_2_2_2_2_2_2_2_2_2_2_2_2_2_2

New Line.l(r:p1rdm1698-p1rdt742lv) Units=km Length=0.00731274 bus1=p1rdt742lv.1.2 bus2=p1rdm1698.1.2 switch=n enabled=y phases=2 Linecode=1P_OH_AL_2/0_Rucina_0_416_0_2_2_2_2_2_2_2_2_2_2_2_2_2_2_2_2_2_2_2_2_2_2_2_2_2_2_2_2_2

New Line.l(r:p1rdt748lv-p1rlv781) Units=km Length=0.023844200000000003 bus1=p1rdt748lv.1.2 bus2=p1rlv781.1.2 switch=n enabled=y phases=2 Linecode=1P_OH_AL_2/0_Rucina_0_416_0_2_2_2_2_2_2_2_2_2_2_2_2_2_2_2_2_2_2_2_2_2_2_2_2_2_2_2_2_2

New Line.l(r:p1rdm1713-p1rlv9855) Units=km Length=0.04385420000000001 bus1=p1rdm1713.1.2 bus2=p1rlv9855.1.2 switch=n enabled=y phases=2 Linecode=1P_OH_AL_4/0_Zuzara_0_416_0_2_2_2_2_2_2_2_2_2_2_2_2_2_2_2_2_2_2_2_2_2_2_2_2_2_2_2_2_2

New Line.l(r:p1rdm1713-p1rdt748lv) Units=km Length=0.0191887 bus1=p1rdt748lv.1.2 bus2=p1rdm1713.1.2 switch=n enabled=y phases=2 Linecode=1P_OH_AL_2/0_Rucina_0_416_0_2_2_2_2_2_2_2_2_2_2_2_2_2_2_2_2_2_2_2_2_2_2_2_2_2_2_2_2_2

New Line.l(r:p1rdm1714-p1rlv782) Units=km Length=0.10300400000000001 bus1=p1rdm1714.1.2 bus2=p1rlv782.1.2 switch=n enabled=y phases=2 Linecode=1P_OH_AL_4/0_Zuzara_0_416_0_2_2_2_2_2_2_2_2_2_2_2_2_2_2_2_2_2_2_2_2_2_2_2_2_2_2_2_2_2

New Line.l(r:p1rdm1714-p1rlv6149) Units=km Length=0.0425027 bus1=p1rdm1714.1.2 bus2=p1rlv6149.1.2 switch=n enabled=y phases=2 Linecode=1P_OH_AL_4/0_Zuzara_0_416_0_2_2_2_2_2_2_2_2_2_2_2_2_2_2_2_2_2_2_2_2_2_2_2_2_2_2_2_2_2

New Line.l(r:p1rdm1714-p1rdt749lv) Units=km Length=0.0186166 bus1=p1rdt749lv.1.2 bus2=p1rdm1714.1.2 switch=n enabled=y phases=2 Linecode=1P_OH_AL_2/0_Rucina_0_416_0_2_2_2_2_2_2_2_2_2_2_2_2_2_2_2_2_2_2_2_2_2_2_2_2_2_2_2_2_2

New Line.l(r:p1rdm1716-p1rlv6500) Units=km Length=0.0899375 bus1=p1rdm1716.1.2 bus2=p1rlv6500.1.2 switch=n enabled=y phases=2 Linecode=1P_OH_AL_4/0_Zuzara_0_416_0_2_2_2_2_2_2_2_2_2_2_2_2_2_2_2_2_2_2_2_2_2_2_2_2_2_2_2_2_2

New Line.l(r:p1rdm1716-p1rdt749lv) Units=km Length=0.018603 bus1=p1rdt749lv.1.2 bus2=p1rdm1716.1.2 switch=n enabled=y phases=2 Linecode=1P_OH_AL_2/0_Rucina_0_416_0_2_2_2_2_2_2_2_2_2_2_2_2_2_2_2_2_2_2_2_2_2_2_2_2_2_2_2_2_2

New Line.l(r:p1rdt846lv-p1rlv13847) Units=km Length=0.0486011 bus1=p1rdt846lv.1.2 bus2=p1rlv13847.1.2 switch=n enabled=y phases=2 Linecode=1P_OH_AL_4/0_Zuzara_0_416_0_2_2_2_2_2_2_2_2_2_2_2_2_2_2_2_2_2_2_2_2_2_2_2_2_2_2_2_2_2

New Line.l(r:p1rdm1925-p1rlv888) Units=km Length=0.00802612 bus1=p1rdm1925.1.2 bus2=p1rlv888.1.2 switch=n enabled=y phases=2 Linecode=1P_OH_AL_2/0_Rucina_0_416_0_2_2_2_2_2_2_2_2_2_2_2_2_2_2_2_2_2_2_2_2_2_2_2_2_2_2_2_2_2

New Line.l(r:p1rdm1924-p1rlv887) Units=km Length=0.0211525 bus1=p1rdm1924.1.2 bus2=p1rlv887.1.2 switch=n enabled=y phases=2 Linecode=1P_OH_AL_2/0_Rucina_0_416_0_2_2_2_2_2_2_2_2_2_2_2_2_2_2_2_2_2_2_2_2_2_2_2_2_2_2_2_2_2

New Line.l(r:p1rdm1924-p1rdm1925) Units=km Length=0.018158 bus1=p1rdm1925.1.2 bus2=p1rdm1924.1.2 switch=n enabled=y phases=2 Linecode=1P_OH_AL_2/0_Rucina_0_416_0_2_2_2_2_2_2_2_2_2_2_2_2_2_2_2_2_2_2_2_2_2_2_2_2_2_2_2_2_2

New Line.l(r:p1rdm1925-p1rdt846lv) Units=km Length=0.01816 bus1=p1rdt846lv.1.2 bus2=p1rdm1925.1.2 switch=n enabled=y phases=2 Linecode=1P_OH_AL_2/0_Rucina_0_416_0_2_2_2_2_2_2_2_2_2_2_2_2_2_2_2_2_2_2_2_2_2_2_2_2_2_2_2_2_2

New Line.l(r:p1rdt869lv-p1rlv912)_s0 Units=km Length=0.001 bus1=p1rdt869lv.1.2 bus2=p1rdt869lv-p1rlv912x.1.2 switch=n enabled=y phases=2 Linecode=1P_OH_AL_4_Periwinkle_0_416_0_2_2_2_2_2_2_2_2_2_2_2_2_2_2_2_2_2_2_2_2_2_2_2_2_2_2_2_2_2

New Line.l(r:p1rdt869lv-p1rlv912)_s1 Units=km Length=0.001 bus1=p1rdt869lv-p1rlv912x.1.2 bus2=p1rdt869lv-p1rlv912xx.1.2 switch=n enabled=y phases=2 Linecode=1P_OH_AL_4_Periwinkle_0_416_0_2_2_2_2_2_2_2_2_2_2_2_2_2_2_2_2_2_2_2_2_2_2_2_2_2_2_2_2_2

New Line.l(r:p1rdt869lv-p1rlv912)_s2 Units=km Length=0.136528 bus1=p1rdt869lv-p1rlv912xx.1.2 bus2=p1rlv912.1.2 switch=n enabled=y phases=2 Linecode=1P_OH_AL_4/0_Zuzara_0_416_0_2_2_2_2_2_2_2_2_2_2_2_2_2_2_2_2_2_2_2_2_2_2_2_2_2_2_2_2_2

New Line.l(r:p1rdt870lv-p1rlv12313) Units=km Length=0.0427713 bus1=p1rdt870lv.1.2 bus2=p1rlv12313.1.2 switch=n enabled=y phases=2 Linecode=1P_OH_AL_4/0_Zuzara_0_416_0_2_2_2_2_2_2_2_2_2_2_2_2_2_2_2_2_2_2_2_2_2_2_2_2_2_2_2_2_2

New Line.l(r:p1rdm1982-p1rlv8104) Units=km Length=0.0328153 bus1=p1rdm1982.1.2 bus2=p1rlv8104.1.2 switch=n enabled=y phases=2 Linecode=1P_OH_AL_4/0_Zuzara_0_416_0_2_2_2_2_2_2_2_2_2_2_2_2_2_2_2_2_2_2_2_2_2_2_2_2_2_2_2_2_2

New Line.l(r:p1rdm1981-p1rlv913) Units=km Length=0.0554112 bus1=p1rdm1981.1.2 bus2=p1rlv913.1.2 switch=n enabled=y phases=2 Linecode=1P_OH_AL_4/0_Zuzara_0_416_0_2_2_2_2_2_2_2_2_2_2_2_2_2_2_2_2_2_2_2_2_2_2_2_2_2_2_2_2_2

New Line.l(r:p1rdm1981-p1rdm1982) Units=km Length=0.0194134 bus1=p1rdm1982.1.2 bus2=p1rdm1981.1.2 switch=n enabled=y phases=2 Linecode=1P_OH_AL_2/0_Rucina_0_416_0_2_2_2_2_2_2_2_2_2_2_2_2_2_2_2_2_2_2_2_2_2_2_2_2_2_2_2_2_2

New Line.l(r:p1rdm1982-p1rdt870lv) Units=km Length=0.0194134 bus1=p1rdt870lv.1.2 bus2=p1rdm1982.1.2 switch=n enabled=y phases=2 Linecode=1P_OH_AL_2/0_Rucina_0_416_0_2_2_2_2_2_2_2_2_2_2_2_2_2_2_2_2_2_2_2_2_2_2_2_2_2_2_2_2_2

New Line.l(r:p1rdm1984-p1rlv12827) Units=km Length=0.0307754 bus1=p1rdm1984.1.2 bus2=p1rlv12827.1.2 switch=n enabled=y phases=2 Linecode=1P_OH_AL_4/0_Zuzara_0_416_0_2_2_2_2_2_2_2_2_2_2_2_2_2_2_2_2_2_2_2_2_2_2_2_2_2_2_2_2_2

New Line.l(r:p1rdm1984-p1rdt870lv) Units=km Length=0.038813200000000006 bus1=p1rdt870lv.1.2 bus2=p1rdm1984.1.2 switch=n enabled=y phases=2 Linecode=1P_OH_AL_4/0_Zuzara_0_416_0_2_2_2_2_2_2_2_2_2_2_2_2_2_2_2_2_2_2_2_2_2_2_2_2_2_2_2_2_2

New Line.l(r:p1rdt872lv-p1rlv915) Units=km Length=0.0546041 bus1=p1rdt872lv.1.2 bus2=p1rlv915.1.2 switch=n enabled=y phases=2 Linecode=1P_OH_AL_4/0_Zuzara_0_416_0_2_2_2_2_2_2_2_2_2_2_2_2_2_2_2_2_2_2_2_2_2_2_2_2_2_2_2_2_2

New Line.l(r:p1rdt872lv-p1rlv7300) Units=km Length=0.0482752 bus1=p1rdt872lv.1.2 bus2=p1rlv7300.1.2 switch=n enabled=y phases=2 Linecode=1P_OH_AL_4/0_Zuzara_0_416_0_2_2_2_2_2_2_2_2_2_2_2_2_2_2_2_2_2_2_2_2_2_2_2_2_2_2_2_2_2

New Line.l(r:p1rdt873lv-p1rlv12696) Units=km Length=0.0834758 bus1=p1rdt873lv.1.2 bus2=p1rlv12696.1.2 switch=n enabled=y phases=2 Linecode=1P_OH_AL_4/0_Zuzara_0_416_0_2_2_2_2_2_2_2_2_2_2_2_2_2_2_2_2_2_2_2_2_2_2_2_2_2_2_2_2_2

New Line.l(r:p1rdt873lv-p1rlv12697) Units=km Length=0.06623000000000001 bus1=p1rdt873lv.1.2 bus2=p1rlv12697.1.2 switch=n enabled=y phases=2 Linecode=1P_OH_AL_4/0_Zuzara_0_416_0_2_2_2_2_2_2_2_2_2_2_2_2_2_2_2_2_2_2_2_2_2_2_2_2_2_2_2_2_2

New Line.l(r:p1rdm1990-p1rlv916) Units=km Length=0.101305 bus1=p1rdm1990.1.2 bus2=p1rlv916.1.2 switch=n enabled=y phases=2 Linecode=1P_OH_AL_4/0_Zuzara_0_416_0_2_2_2_2_2_2_2_2_2_2_2_2_2_2_2_2_2_2_2_2_2_2_2_2_2_2_2_2_2

New Line.l(r:p1rdm1990-p1rdt873lv) Units=km Length=0.0186889 bus1=p1rdt873lv.1.2 bus2=p1rdm1990.1.2 switch=n enabled=y phases=2 Linecode=1P_OH_AL_2/0_Rucina_0_416_0_2_2_2_2_2_2_2_2_2_2_2_2_2_2_2_2_2_2_2_2_2_2_2_2_2_2_2_2_2

New Line.l(r:p1rdm1993-p1rlv12833) Units=km Length=0.10035900000000002 bus1=p1rdm1993.1.2 bus2=p1rlv12833.1.2 switch=n enabled=y phases=2 Linecode=1P_OH_AL_4/0_Zuzara_0_416_0_2_2_2_2_2_2_2_2_2_2_2_2_2_2_2_2_2_2_2_2_2_2_2_2_2_2_2_2_2

New Line.l(r:p1rdm1993-p1rdt873lv) Units=km Length=0.0186945 bus1=p1rdt873lv.1.2 bus2=p1rdm1993.1.2 switch=n enabled=y phases=2 Linecode=1P_OH_AL_2/0_Rucina_0_416_0_2_2_2_2_2_2_2_2_2_2_2_2_2_2_2_2_2_2_2_2_2_2_2_2_2_2_2_2_2

New Line.l(r:p1rdt881lv-p1rlv924) Units=km Length=0.109423 bus1=p1rdt881lv.1.2 bus2=p1rlv924.1.2 switch=n enabled=y phases=2 Linecode=1P_OH_AL_4/0_Zuzara_0_416_0_2_2_2_2_2_2_2_2_2_2_2_2_2_2_2_2_2_2_2_2_2_2_2_2_2_2_2_2_2

New Line.l(r:p1rdt881lv-p1rlv9162) Units=km Length=0.0676427 bus1=p1rdt881lv.1.2 bus2=p1rlv9162.1.2 switch=n enabled=y phases=2 Linecode=1P_OH_AL_4/0_Zuzara_0_416_0_2_2_2_2_2_2_2_2_2_2_2_2_2_2_2_2_2_2_2_2_2_2_2_2_2_2_2_2_2

New Line.l(r:p1rdt881lv-p1rlv13603) Units=km Length=0.04227 bus1=p1rdt881lv.1.2 bus2=p1rlv13603.1.2 switch=n enabled=y phases=2 Linecode=1P_OH_AL_4/0_Zuzara_0_416_0_2_2_2_2_2_2_2_2_2_2_2_2_2_2_2_2_2_2_2_2_2_2_2_2_2_2_2_2_2

New Line.l(r:p1rdm2007-p1rlv12972) Units=km Length=0.0763437 bus1=p1rdm2007.1.2 bus2=p1rlv12972.1.2 switch=n enabled=y phases=2 Linecode=1P_OH_AL_4/0_Zuzara_0_416_0_2_2_2_2_2_2_2_2_2_2_2_2_2_2_2_2_2_2_2_2_2_2_2_2_2_2_2_2_2

New Line.l(r:p1rdm2007-p1rdt881lv) Units=km Length=0.0355165 bus1=p1rdt881lv.1.2 bus2=p1rdm2007.1.2 switch=n enabled=y phases=2 Linecode=1P_OH_AL_4/0_Zuzara_0_416_0_2_2_2_2_2_2_2_2_2_2_2_2_2_2_2_2_2_2_2_2_2_2_2_2_2_2_2_2_2

New Line.l(r:p1rdm2009-p1rlv925) Units=km Length=0.062042200000000006 bus1=p1rdm2009.1.2 bus2=p1rlv925.1.2 switch=n enabled=y phases=2 Linecode=1P_OH_AL_4/0_Zuzara_0_416_0_2_2_2_2_2_2_2_2_2_2_2_2_2_2_2_2_2_2_2_2_2_2_2_2_2_2_2_2_2

New Line.l(r:p1rdm2009-p1rdt882lv) Units=km Length=0.0161213 bus1=p1rdt882lv.1.2 bus2=p1rdm2009.1.2 switch=n enabled=y phases=2 Linecode=1P_OH_AL_2/0_Rucina_0_416_0_2_2_2_2_2_2_2_2_2_2_2_2_2_2_2_2_2_2_2_2_2_2_2_2_2_2_2_2_2

New Line.l(r:p1rdm2010-p1rlv10109) Units=km Length=0.0643883 bus1=p1rdm2010.1.2 bus2=p1rlv10109.1.2 switch=n enabled=y phases=2 Linecode=1P_OH_AL_4/0_Zuzara_0_416_0_2_2_2_2_2_2_2_2_2_2_2_2_2_2_2_2_2_2_2_2_2_2_2_2_2_2_2_2_2

New Line.l(r:p1rdm2010-p1rdt882lv) Units=km Length=0.0161294 bus1=p1rdt882lv.1.2 bus2=p1rdm2010.1.2 switch=n enabled=y phases=2 Linecode=1P_OH_AL_2/0_Rucina_0_416_0_2_2_2_2_2_2_2_2_2_2_2_2_2_2_2_2_2_2_2_2_2_2_2_2_2_2_2_2_2

New Line.l(r:p1rdt974lv-p1rlv1026) Units=km Length=0.03825 bus1=p1rdt974lv.1.2 bus2=p1rlv1026.1.2 switch=n enabled=y phases=2 Linecode=1P_OH_AL_4/0_Zuzara_0_416_0_2_2_2_2_2_2_2_2_2_2_2_2_2_2_2_2_2_2_2_2_2_2_2_2_2_2_2_2_2

New Line.l(r:p1rdt983lv-p1rlv9538) Units=km Length=0.086264 bus1=p1rdt983lv.1.2 bus2=p1rlv9538.1.2 switch=n enabled=y phases=2 Linecode=1P_OH_AL_4/0_Zuzara_0_416_0_2_2_2_2_2_2_2_2_2_2_2_2_2_2_2_2_2_2_2_2_2_2_2_2_2_2_2_2_2

New Line.l(r:p1rdm2219-p1rlv1036) Units=km Length=0.0756913 bus1=p1rdm2219.1.2 bus2=p1rlv1036.1.2 switch=n enabled=y phases=2 Linecode=1P_OH_AL_4/0_Zuzara_0_416_0_2_2_2_2_2_2_2_2_2_2_2_2_2_2_2_2_2_2_2_2_2_2_2_2_2_2_2_2_2

New Line.l(r:p1rdm2219-p1rdt983lv) Units=km Length=0.019199 bus1=p1rdt983lv.1.2 bus2=p1rdm2219.1.2 switch=n enabled=y phases=2 Linecode=1P_OH_AL_2/0_Rucina_0_416_0_2_2_2_2_2_2_2_2_2_2_2_2_2_2_2_2_2_2_2_2_2_2_2_2_2_2_2_2_2

New Line.l(r:p1rdt987lv-p1rlv1040) Units=km Length=0.0318124 bus1=p1rdt987lv.1.2 bus2=p1rlv1040.1.2 switch=n enabled=y phases=2 Linecode=1P_OH_AL_4/0_Zuzara_0_416_0_2_2_2_2_2_2_2_2_2_2_2_2_2_2_2_2_2_2_2_2_2_2_2_2_2_2_2_2_2

New Line.l(r:p1rdt987lv-p1rlv9149) Units=km Length=0.0255654 bus1=p1rdt987lv.1.2 bus2=p1rlv9149.1.2 switch=n enabled=y phases=2 Linecode=1P_OH_AL_2/0_Rucina_0_416_0_2_2_2_2_2_2_2_2_2_2_2_2_2_2_2_2_2_2_2_2_2_2_2_2_2_2_2_2_2

New Line.l(r:p1rdt987lv-p1rlv13093) Units=km Length=0.0205327 bus1=p1rdt987lv.1.2 bus2=p1rlv13093.1.2 switch=n enabled=y phases=2 Linecode=1P_OH_AL_2/0_Rucina_0_416_0_2_2_2_2_2_2_2_2_2_2_2_2_2_2_2_2_2_2_2_2_2_2_2_2_2_2_2_2_2

New Line.l(r:p1rdt988lv-p1rlv1041) Units=km Length=0.001 bus1=p1rdt988lv.1.2 bus2=p1rlv1041.1.2 switch=n enabled=y phases=2 Linecode=1P_OH_AL_4_Periwinkle_0_416_0_2_2_2_2_2_2_2_2_2_2_2_2_2_2_2_2_2_2_2_2_2_2_2_2_2_2_2_2_2

New Line.l(r:p1rdt992lv-p1rlv1045) Units=km Length=0.0496888 bus1=p1rdt992lv.1.2 bus2=p1rlv1045.1.2 switch=n enabled=y phases=2 Linecode=1P_OH_AL_4/0_Zuzara_0_416_0_2_2_2_2_2_2_2_2_2_2_2_2_2_2_2_2_2_2_2_2_2_2_2_2_2_2_2_2_2

New Line.l(r:p1rdt992lv-p1rlv1829) Units=km Length=0.0496888 bus1=p1rdt992lv.1.2 bus2=p1rlv1829.1.2 switch=n enabled=y phases=2 Linecode=1P_OH_AL_4/0_Zuzara_0_416_0_2_2_2_2_2_2_2_2_2_2_2_2_2_2_2_2_2_2_2_2_2_2_2_2_2_2_2_2_2

New Line.l(r:p1rdt993lv-p1rlv1046) Units=km Length=0.001 bus1=p1rdt993lv.1.2 bus2=p1rlv1046.1.2 switch=n enabled=y phases=2 Linecode=1P_OH_AL_4_Periwinkle_0_416_0_2_2_2_2_2_2_2_2_2_2_2_2_2_2_2_2_2_2_2_2_2_2_2_2_2_2_2_2_2

New Line.l(r:p1rdt994lv-p1rlv1047) Units=km Length=0.0426309 bus1=p1rdt994lv.1.2 bus2=p1rlv1047.1.2 switch=n enabled=y phases=2 Linecode=1P_OH_AL_4/0_Zuzara_0_416_0_2_2_2_2_2_2_2_2_2_2_2_2_2_2_2_2_2_2_2_2_2_2_2_2_2_2_2_2_2

New Line.l(r:p1rdt994lv-p1rlv6016) Units=km Length=0.0426309 bus1=p1rdt994lv.1.2 bus2=p1rlv6016.1.2 switch=n enabled=y phases=2 Linecode=1P_OH_AL_4/0_Zuzara_0_416_0_2_2_2_2_2_2_2_2_2_2_2_2_2_2_2_2_2_2_2_2_2_2_2_2_2_2_2_2_2

New Line.l(r:p1rdt1090lv-p1rlv1152) Units=km Length=0.0403981 bus1=p1rdt1090lv.1.2 bus2=p1rlv1152.1.2 switch=n enabled=y phases=2 Linecode=1P_OH_AL_4/0_Zuzara_0_416_0_2_2_2_2_2_2_2_2_2_2_2_2_2_2_2_2_2_2_2_2_2_2_2_2_2_2_2_2_2

New Line.l(r:p1rdm2436-p1rlv8474) Units=km Length=0.0649988 bus1=p1rdm2436.1.2 bus2=p1rlv8474.1.2 switch=n enabled=y phases=2 Linecode=1P_OH_AL_4/0_Zuzara_0_416_0_2_2_2_2_2_2_2_2_2_2_2_2_2_2_2_2_2_2_2_2_2_2_2_2_2_2_2_2_2

New Line.l(r:p1rdm2436-p1rdt1090lv) Units=km Length=0.0194628 bus1=p1rdt1090lv.1.2 bus2=p1rdm2436.1.2 switch=n enabled=y phases=2 Linecode=1P_OH_AL_2/0_Rucina_0_416_0_2_2_2_2_2_2_2_2_2_2_2_2_2_2_2_2_2_2_2_2_2_2_2_2_2_2_2_2_2

New Line.l(r:p1rdt1091lv-p1rlv1153) Units=km Length=0.050764 bus1=p1rdt1091lv.1.2 bus2=p1rlv1153.1.2 switch=n enabled=y phases=2 Linecode=1P_OH_AL_4/0_Zuzara_0_416_0_2_2_2_2_2_2_2_2_2_2_2_2_2_2_2_2_2_2_2_2_2_2_2_2_2_2_2_2_2

New Line.l(r:p1rdt1092lv-p1rlv1154) Units=km Length=0.0914814 bus1=p1rdt1092lv.1.2 bus2=p1rlv1154.1.2 switch=n enabled=y phases=2 Linecode=1P_OH_AL_4/0_Zuzara_0_416_0_2_2_2_2_2_2_2_2_2_2_2_2_2_2_2_2_2_2_2_2_2_2_2_2_2_2_2_2_2

New Line.l(r:p1rdm2439-p1rlv12435) Units=km Length=0.0890403 bus1=p1rdm2439.1.2 bus2=p1rlv12435.1.2 switch=n enabled=y phases=2 Linecode=1P_OH_AL_4/0_Zuzara_0_416_0_2_2_2_2_2_2_2_2_2_2_2_2_2_2_2_2_2_2_2_2_2_2_2_2_2_2_2_2_2

New Line.l(r:p1rdm2439-p1rdt1092lv) Units=km Length=0.0194926 bus1=p1rdt1092lv.1.2 bus2=p1rdm2439.1.2 switch=n enabled=y phases=2 Linecode=1P_OH_AL_2/0_Rucina_0_416_0_2_2_2_2_2_2_2_2_2_2_2_2_2_2_2_2_2_2_2_2_2_2_2_2_2_2_2_2_2

New Line.l(r:p1rdt1106lv-p1rlv1169) Units=km Length=0.0808269 bus1=p1rdt1106lv.1.2 bus2=p1rlv1169.1.2 switch=n enabled=y phases=2 Linecode=1P_OH_AL_4/0_Zuzara_0_416_0_2_2_2_2_2_2_2_2_2_2_2_2_2_2_2_2_2_2_2_2_2_2_2_2_2_2_2_2_2

New Line.l(r:p1rdt1106lv-p1rlv12828) Units=km Length=0.116497 bus1=p1rdt1106lv.1.2 bus2=p1rlv12828.1.2 switch=n enabled=y phases=2 Linecode=1P_OH_AL_4/0_Zuzara_0_416_0_2_2_2_2_2_2_2_2_2_2_2_2_2_2_2_2_2_2_2_2_2_2_2_2_2_2_2_2_2

New Line.l(r:p1rdt1107lv-p1rlv1170) Units=km Length=0.0958699 bus1=p1rdt1107lv.1.2 bus2=p1rlv1170.1.2 switch=n enabled=y phases=2 Linecode=1P_OH_AL_4/0_Zuzara_0_416_0_2_2_2_2_2_2_2_2_2_2_2_2_2_2_2_2_2_2_2_2_2_2_2_2_2_2_2_2_2
