Clear

New Circuit.substation_p5uhs7_69 bus1=p5uhs7_69 pu=1.0 basekV=69.0 R1=1e-05 X1=1e-05 R0=1e-05 X0=1e-05

Redirect Transformers.dss
Redirect p5uhs7_1247--p5udt2290/Transformers.dss
Redirect p5uhs7_1247--p5udt1899/Transformers.dss
Redirect p5uhs7_1247--p5udt2039/Transformers.dss
Redirect Regulators.dss
Redirect p5uhs7_1247--p5udt2290/Loads.dss
Redirect p5uhs7_1247--p5udt1899/Loads.dss
Redirect p5uhs7_1247--p5udt2039/Loads.dss
Redirect LineCodes.dss
Redirect p5uhs7_1247--p5udt2290/LineCodes.dss
Redirect p5uhs7_1247--p5udt1899/LineCodes.dss
Redirect p5uhs7_1247--p5udt2039/LineCodes.dss
Redirect Lines.dss
Redirect p5uhs7_1247--p5udt2290/Lines.dss
Redirect p5uhs7_1247--p5udt1899/Lines.dss
Redirect p5uhs7_1247--p5udt2039/Lines.dss
Redirect p5uhs7_1247--p5udt2290/Capacitors.dss
Redirect p5uhs7_1247--p5udt1899/Capacitors.dss
Redirect p5uhs7_1247--p5udt2039/Capacitors.dss

Set Voltagebases=[0.2080002494301389, 0.48, 7.199560000000001, 12.47, 69.0]

Calcvoltagebases

Buscoords Buscoords.dss

Solve