New Transformer.sb8_p5uhs14_1247_trans_2 phases=3 windings=2 wdg=1 conn=delta Kv=69.0 kva=30000.0 %R=0.33831264 bus=sb8_p5uhs14_1247_node_8_9 wdg=2 conn=wye Kv=12.47 kva=30000.0 %R=0.33831264 bus=sb8_p5uhs14_1247_node_8_4 XHL=6.76625

