New Load.load_p5ulv19573 conn=wye bus1=p5ulv19573.1.2 kV=0.2080002494301389 Vminpu=0.8 Vmaxpu=1.2 model=1 kW=5.73006 kvar=1.1605367042542845 Phases=2

New Load.load_p5ulv19579 conn=wye bus1=p5ulv19579.1.2.3 kV=0.48 Vminpu=0.8 Vmaxpu=1.2 model=1 kW=60.7006 kvar=12.325782535680439 Phases=3

New Load.load_p5ulv19580 conn=wye bus1=p5ulv19580.1.2.3 kV=0.48 Vminpu=0.8 Vmaxpu=1.2 model=1 kW=32.2603 kvar=6.550733309651171 Phases=3

New Load.load_p5ulv19582 conn=wye bus1=p5ulv19582.1.2 kV=0.2080002494301389 Vminpu=0.8 Vmaxpu=1.2 model=1 kW=11.3001 kvar=2.288663785674817 Phases=2

New Load.load_p5ulv19583 conn=wye bus1=p5ulv19583.1.2 kV=0.2080002494301389 Vminpu=0.8 Vmaxpu=1.2 model=1 kW=6.54007 kvar=1.3314360004287842 Phases=2

New Load.load_p5ulv20127 conn=wye bus1=p5ulv20127.1.2 kV=0.2080002494301389 Vminpu=0.8 Vmaxpu=1.2 model=1 kW=10.340100000000001 kvar=2.0996468568216677 Phases=2

New Load.load_p5ulv20676 conn=wye bus1=p5ulv20676.1.2.3 kV=0.48 Vminpu=0.8 Vmaxpu=1.2 model=1 kW=29.240300000000005 kvar=5.937496154536477 Phases=3

New Load.load_p5ulv20678 conn=wye bus1=p5ulv20678.1.2.3 kV=0.48 Vminpu=0.8 Vmaxpu=1.2 model=1 kW=88.8209 kvar=18.035852990306825 Phases=3

New Load.load_p5ulv20679 conn=wye bus1=p5ulv20679.1.2 kV=0.2080002494301389 Vminpu=0.8 Vmaxpu=1.2 model=1 kW=8.17008 kvar=1.6590055020726662 Phases=2

New Load.load_p5ulv20680 conn=wye bus1=p5ulv20680.1.2 kV=0.2080002494301389 Vminpu=0.8 Vmaxpu=1.2 model=1 kW=11.3001 kvar=2.300489130612563 Phases=2

New Load.load_p5ulv20685 conn=wye bus1=p5ulv20685.1.2 kV=0.2080002494301389 Vminpu=0.8 Vmaxpu=1.2 model=1 kW=6.48006 kvar=1.3192190861777544 Phases=2

New Load.load_p5ulv20688 conn=wye bus1=p5ulv20688.1.2 kV=0.2080002494301389 Vminpu=0.8 Vmaxpu=1.2 model=1 kW=3.09003 kvar=1.0101506588757732 Phases=2

New Load.load_p5ulv21218 conn=wye bus1=p5ulv21218.1.2 kV=0.2080002494301389 Vminpu=0.8 Vmaxpu=1.2 model=1 kW=14.4901 kvar=2.9423402984527858 Phases=2

New Load.load_p5ulv21220 conn=wye bus1=p5ulv21220.1.2 kV=0.2080002494301389 Vminpu=0.8 Vmaxpu=1.2 model=1 kW=11.7901 kvar=2.387905850345099 Phases=2

New Load.load_p5ulv21221 conn=wye bus1=p5ulv21221.1.2 kV=0.2080002494301389 Vminpu=0.8 Vmaxpu=1.2 model=1 kW=4.97005 kvar=1.009211696284033 Phases=2

New Load.load_p5ulv21234 conn=wye bus1=p5ulv21234.1.2 kV=0.2080002494301389 Vminpu=0.8 Vmaxpu=1.2 model=1 kW=7.630080000000001 kvar=1.5493538253303036 Phases=2

New Load.load_p5ulv21748 conn=wye bus1=p5ulv21748.1.2 kV=0.2080002494301389 Vminpu=0.8 Vmaxpu=1.2 model=1 kW=10.3901 kvar=2.1097997898533682 Phases=2

New Load.load_p5ulv21749 conn=wye bus1=p5ulv21749.1.2 kV=0.2080002494301389 Vminpu=0.8 Vmaxpu=1.2 model=1 kW=8.37008 kvar=1.6996172341994666 Phases=2

New Load.load_p5ulv21755 conn=wye bus1=p5ulv21755.1.2 kV=0.2080002494301389 Vminpu=0.8 Vmaxpu=1.2 model=1 kW=9.50009 kvar=1.929075551302498 Phases=2

New Load.load_p5ulv21759 conn=wye bus1=p5ulv21759.1.2.3 kV=0.48 Vminpu=0.8 Vmaxpu=1.2 model=1 kW=19.7702 kvar=4.014510332466392 Phases=3

New Load.load_p5ulv22301 conn=wye bus1=p5ulv22301.1.2.3 kV=0.48 Vminpu=0.8 Vmaxpu=1.2 model=1 kW=48.2505 kvar=9.797681904921022 Phases=3

New Load.load_p5ulv22302 conn=wye bus1=p5ulv22302.1.2 kV=0.2080002494301389 Vminpu=0.8 Vmaxpu=1.2 model=1 kW=3.83004 kvar=1.2602318591679107 Phases=2

New Load.load_p5ulv22305 conn=wye bus1=p5ulv22305.1.2 kV=0.2080002494301389 Vminpu=0.8 Vmaxpu=1.2 model=1 kW=8.88009 kvar=1.7985274817508763 Phases=2

New Load.load_p5ulv22876 conn=wye bus1=p5ulv22876.1.2 kV=0.2080002494301389 Vminpu=0.8 Vmaxpu=1.2 model=1 kW=7.030070000000001 kvar=1.43119084100543 Phases=2

New Load.load_p5ulv22880 conn=wye bus1=p5ulv22880.1.2.3 kV=0.48 Vminpu=0.8 Vmaxpu=1.2 model=1 kW=26.3603 kvar=8.664211617746387 Phases=3

New Load.load_p5ulv22881 conn=wye bus1=p5ulv22881.1.2.3 kV=0.48 Vminpu=0.8 Vmaxpu=1.2 model=1 kW=98.081 kvar=19.916196493643778 Phases=3

New Load.load_p5ulv23413 conn=wye bus1=p5ulv23413.1.2.3 kV=0.48 Vminpu=0.8 Vmaxpu=1.2 model=1 kW=97.821 kvar=19.863401241878933 Phases=3

New Load.load_p5ulv23414 conn=wye bus1=p5ulv23414.1.2 kV=0.2080002494301389 Vminpu=0.8 Vmaxpu=1.2 model=1 kW=5.72006 kvar=1.1585113559957074 Phases=2

New Load.load_p5ulv23415 conn=wye bus1=p5ulv23415.1.2 kV=0.2080002494301389 Vminpu=0.8 Vmaxpu=1.2 model=1 kW=7.27007 kvar=1.4800503547572565 Phases=2

New Load.load_p5ulv23416 conn=wye bus1=p5ulv23416.1.2 kV=0.2080002494301389 Vminpu=0.8 Vmaxpu=1.2 model=1 kW=6.80007 kvar=1.3808131064174733 Phases=2

New Load.load_p5ulv23417 conn=wye bus1=p5ulv23417.1.2 kV=0.2080002494301389 Vminpu=0.8 Vmaxpu=1.2 model=1 kW=10.7201 kvar=2.182411972378982 Phases=2

New Load.load_p5ulv23429 conn=wye bus1=p5ulv23429.1.2 kV=0.2080002494301389 Vminpu=0.8 Vmaxpu=1.2 model=1 kW=7.09007 kvar=1.4397001180013347 Phases=2

New Load.load_p5ulv24017 conn=wye bus1=p5ulv24017.1.2 kV=0.2080002494301389 Vminpu=0.8 Vmaxpu=1.2 model=1 kW=5.63006 kvar=1.1402832216685126 Phases=2

New Load.load_p5ulv24022 conn=wye bus1=p5ulv24022.1.2 kV=0.2080002494301389 Vminpu=0.8 Vmaxpu=1.2 model=1 kW=4.90005 kvar=1.0001138028631646 Phases=2

New Load.load_p5ulv24024 conn=wye bus1=p5ulv24024.1.2 kV=0.2080002494301389 Vminpu=0.8 Vmaxpu=1.2 model=1 kW=7.31007 kvar=1.4805437544577398 Phases=2

New Load.load_p5ulv24029 conn=wye bus1=p5ulv24029.1.2 kV=0.2080002494301389 Vminpu=0.8 Vmaxpu=1.2 model=1 kW=14.9401 kvar=3.033716695738087 Phases=2

New Load.load_p5ulv24570 conn=wye bus1=p5ulv24570.1.2 kV=0.2080002494301389 Vminpu=0.8 Vmaxpu=1.2 model=1 kW=6.93007 kvar=1.4108327102755023 Phases=2

New Load.load_p5ulv24574 conn=wye bus1=p5ulv24574.1.2 kV=0.2080002494301389 Vminpu=0.8 Vmaxpu=1.2 model=1 kW=5.30005 kvar=1.0789911077515342 Phases=2

New Load.load_p5ulv24575 conn=wye bus1=p5ulv24575.1.2 kV=0.2080002494301389 Vminpu=0.8 Vmaxpu=1.2 model=1 kW=5.01005 kvar=1.019952528634744 Phases=2

New Load.load_p5ulv24576 conn=wye bus1=p5ulv24576.1.2 kV=0.2080002494301389 Vminpu=0.8 Vmaxpu=1.2 model=1 kW=9.42009 kvar=1.9078962877140453 Phases=2

New Load.load_p5ulv24583 conn=wye bus1=p5ulv24583.1.2 kV=0.2080002494301389 Vminpu=0.8 Vmaxpu=1.2 model=1 kW=14.3301 kvar=2.909850912751345 Phases=2

New Load.load_p5ulv24585 conn=wye bus1=p5ulv24585.1.2 kV=0.2080002494301389 Vminpu=0.8 Vmaxpu=1.2 model=1 kW=10.0201 kvar=2.039905057269488 Phases=2

New Load.load_p5ulv24589 conn=wye bus1=p5ulv24589.1.2 kV=0.2080002494301389 Vminpu=0.8 Vmaxpu=1.2 model=1 kW=9.8701 kvar=1.999038984698278 Phases=2

New Load.load_p5ulv25124 conn=wye bus1=p5ulv25124.1.2 kV=0.2080002494301389 Vminpu=0.8 Vmaxpu=1.2 model=1 kW=7.60008 kvar=1.5392808793047372 Phases=2

New Load.load_p5ulv25129 conn=wye bus1=p5ulv25129.1.2.3 kV=0.48 Vminpu=0.8 Vmaxpu=1.2 model=1 kW=56.57059999999999 kvar=11.487150267262003 Phases=3

New Load.load_p5ulv25133 conn=wye bus1=p5ulv25133.1.2 kV=0.2080002494301389 Vminpu=0.8 Vmaxpu=1.2 model=1 kW=6.05006 kvar=1.2285170803553642 Phases=2

New Load.load_p5ulv25134 conn=wye bus1=p5ulv25134.1.2 kV=0.2080002494301389 Vminpu=0.8 Vmaxpu=1.2 model=1 kW=3.09003 kvar=0.6306836979747686 Phases=2

New Load.load_p5ulv25702 conn=wye bus1=p5ulv25702.1.2.3 kV=0.48 Vminpu=0.8 Vmaxpu=1.2 model=1 kW=34.6203 kvar=7.029951748747418 Phases=3

New Load.load_p5ulv25703 conn=wye bus1=p5ulv25703.1.2 kV=0.2080002494301389 Vminpu=0.8 Vmaxpu=1.2 model=1 kW=13.5501 kvar=2.7514651574568214 Phases=2

New Load.load_p5ulv25704 conn=wye bus1=p5ulv25704.1.2.3 kV=0.48 Vminpu=0.8 Vmaxpu=1.2 model=1 kW=58.22059999999999 kvar=11.82219705730811 Phases=3

New Load.load_p5ulv25719 conn=wye bus1=p5ulv25719.1.2 kV=0.2080002494301389 Vminpu=0.8 Vmaxpu=1.2 model=1 kW=5.32005 kvar=1.0802822275059345 Phases=2

New Load.load_p5ulv26787 conn=wye bus1=p5ulv26787.1.2 kV=0.2080002494301389 Vminpu=0.8 Vmaxpu=1.2 model=1 kW=9.7401 kvar=1.9778116604412652 Phases=2

New Load.load_p5ulv26788 conn=wye bus1=p5ulv26788.1.2 kV=0.2080002494301389 Vminpu=0.8 Vmaxpu=1.2 model=1 kW=8.61009 kvar=1.7483533433382341 Phases=2

New Load.load_p5ulv26792 conn=wye bus1=p5ulv26792.1.2 kV=0.2080002494301389 Vminpu=0.8 Vmaxpu=1.2 model=1 kW=6.020060000000001 kvar=1.219271803753023 Phases=2

New Load.load_p5ulv26793 conn=wye bus1=p5ulv26793.1.2 kV=0.2080002494301389 Vminpu=0.8 Vmaxpu=1.2 model=1 kW=8.18008 kvar=1.6610360886790059 Phases=2

New Load.load_p5umv69 conn=wye bus1=p5umv69.1.2.3 kV=12.47 Vminpu=0.8 Vmaxpu=1.2 model=1 kW=1077.16 kvar=354.04537073446426 Phases=3

New Load.load_p5ulv27384 conn=wye bus1=p5ulv27384.1.2 kV=0.2080002494301389 Vminpu=0.8 Vmaxpu=1.2 model=1 kW=2.33002 kvar=0.769966780965253 Phases=2

New Load.load_p5ulv27385 conn=wye bus1=p5ulv27385.1.2 kV=0.2080002494301389 Vminpu=0.8 Vmaxpu=1.2 model=1 kW=2.38002 kvar=0.47953488966710467 Phases=2

New Load.load_p5ulv27396 conn=wye bus1=p5ulv27396.1.2 kV=0.2080002494301389 Vminpu=0.8 Vmaxpu=1.2 model=1 kW=6.71007 kvar=1.3590228589431081 Phases=2

New Load.load_p5ulv27949 conn=wye bus1=p5ulv27949.1.2 kV=0.2080002494301389 Vminpu=0.8 Vmaxpu=1.2 model=1 kW=6.05006 kvar=1.2285170803553642 Phases=2

New Load.load_p5ulv28534 conn=wye bus1=p5ulv28534.1.2 kV=0.2080002494301389 Vminpu=0.8 Vmaxpu=1.2 model=1 kW=13.2001 kvar=2.68039462623492 Phases=2

New Load.load_p5ulv28535 conn=wye bus1=p5ulv28535.1.2.3 kV=0.48 Vminpu=0.8 Vmaxpu=1.2 model=1 kW=281.5230000000001 kvar=57.1656833176668 Phases=3

New Load.load_p5ulv28536 conn=wye bus1=p5ulv28536.1.2 kV=0.2080002494301389 Vminpu=0.8 Vmaxpu=1.2 model=1 kW=15.9602 kvar=3.240856835450835 Phases=2

New Load.load_p5ulv28537 conn=wye bus1=p5ulv28537.1.2 kV=0.2080002494301389 Vminpu=0.8 Vmaxpu=1.2 model=1 kW=7.7500800000000005 kvar=1.5696611031833951 Phases=2

New Load.load_p5ulv28538 conn=wye bus1=p5ulv28538.1.2 kV=0.2080002494301389 Vminpu=0.8 Vmaxpu=1.2 model=1 kW=7.78008 kvar=1.579812624425404 Phases=2

New Load.load_p5ulv29139 conn=wye bus1=p5ulv29139.1.2 kV=0.2080002494301389 Vminpu=0.8 Vmaxpu=1.2 model=1 kW=7.04007 kvar=1.4295471849696346 Phases=2

New Load.load_p5ulv29659 conn=wye bus1=p5ulv29659.1.2 kV=0.2080002494301389 Vminpu=0.8 Vmaxpu=1.2 model=1 kW=9.5501 kvar=1.9392305149208044 Phases=2

New Load.load_p5ulv29660 conn=wye bus1=p5ulv29660.1.2 kV=0.2080002494301389 Vminpu=0.8 Vmaxpu=1.2 model=1 kW=8.24008 kvar=1.6689031678536776 Phases=2

New Load.load_p5ulv29661 conn=wye bus1=p5ulv29661.1.2 kV=0.2080002494301389 Vminpu=0.8 Vmaxpu=1.2 model=1 kW=7.31007 kvar=1.4805437544577398 Phases=2

New Load.load_p5ulv30206 conn=wye bus1=p5ulv30206.1.2.3 kV=0.48 Vminpu=0.8 Vmaxpu=1.2 model=1 kW=28.530300000000004 kvar=9.37745612598452 Phases=3

New Load.load_p5ulv30209 conn=wye bus1=p5ulv30209.1.2.3 kV=0.48 Vminpu=0.8 Vmaxpu=1.2 model=1 kW=180.612 kvar=36.67483081442878 Phases=3

New Load.load_p5ulv30211 conn=wye bus1=p5ulv30211.1.2 kV=0.2080002494301389 Vminpu=0.8 Vmaxpu=1.2 model=1 kW=6.350060000000001 kvar=1.2894346785455655 Phases=2

New Load.load_p5ulv30758 conn=wye bus1=p5ulv30758.1.2.3 kV=0.48 Vminpu=0.8 Vmaxpu=1.2 model=1 kW=58.53060000000001 kvar=11.885145242104652 Phases=3

New Load.load_p5ulv30760 conn=wye bus1=p5ulv30760.1.2 kV=0.2080002494301389 Vminpu=0.8 Vmaxpu=1.2 model=1 kW=4.880050000000001 kvar=0.9909364168269728 Phases=2

New Load.load_p5ulv30768 conn=wye bus1=p5ulv30768.1.2 kV=0.2080002494301389 Vminpu=0.8 Vmaxpu=1.2 model=1 kW=9.19009 kvar=1.870930536398015 Phases=2

New Load.load_p5ulv31308 conn=wye bus1=p5ulv31308.1.2 kV=0.2080002494301389 Vminpu=0.8 Vmaxpu=1.2 model=1 kW=5.79006 kvar=1.1787479841412536 Phases=2

New Load.load_p5ulv31312 conn=wye bus1=p5ulv31312.1.2 kV=0.2080002494301389 Vminpu=0.8 Vmaxpu=1.2 model=1 kW=5.460050000000001 kvar=1.1087104399946952 Phases=2

New Load.load_p5ulv31313 conn=wye bus1=p5ulv31313.1.2 kV=0.2080002494301389 Vminpu=0.8 Vmaxpu=1.2 model=1 kW=7.450070000000001 kvar=1.5088986300778207 Phases=2

New Load.load_p5ulv31833 conn=wye bus1=p5ulv31833.1.2 kV=0.2080002494301389 Vminpu=0.8 Vmaxpu=1.2 model=1 kW=8.73009 kvar=1.7681472578722188 Phases=2

New Load.load_p5ulv31839 conn=wye bus1=p5ulv31839.1.2 kV=0.2080002494301389 Vminpu=0.8 Vmaxpu=1.2 model=1 kW=8.08008 kvar=1.6407302226156055 Phases=2

New Load.load_p5ulv31840 conn=wye bus1=p5ulv31840.1.2 kV=0.2080002494301389 Vminpu=0.8 Vmaxpu=1.2 model=1 kW=2.97003 kvar=0.980410957502397 Phases=2

New Load.load_p5ulv32369 conn=wye bus1=p5ulv32369.1.2 kV=0.2080002494301389 Vminpu=0.8 Vmaxpu=1.2 model=1 kW=8.14008 kvar=1.6486496852679053 Phases=2

New Load.load_p5ulv32372 conn=wye bus1=p5ulv32372.1.2 kV=0.2080002494301389 Vminpu=0.8 Vmaxpu=1.2 model=1 kW=8.88009 kvar=1.7985274817508763 Phases=2

New Load.load_p5ulv32375 conn=wye bus1=p5ulv32375.1.2 kV=0.2080002494301389 Vminpu=0.8 Vmaxpu=1.2 model=1 kW=8.99009 kvar=1.8208063125952259 Phases=2

New Load.load_p5ulv32902 conn=wye bus1=p5ulv32902.1.2.3 kV=0.48 Vminpu=0.8 Vmaxpu=1.2 model=1 kW=75.1608 kvar=15.262051380180267 Phases=3

New Load.load_p5ulv32903 conn=wye bus1=p5ulv32903.1.2 kV=0.2080002494301389 Vminpu=0.8 Vmaxpu=1.2 model=1 kW=6.54007 kvar=1.3314360004287842 Phases=2

New Load.load_p5ulv32904 conn=wye bus1=p5ulv32904.1.2.3 kV=0.48 Vminpu=0.8 Vmaxpu=1.2 model=1 kW=48.9005 kvar=9.929670034333126 Phases=3

New Load.load_p5ulv32905 conn=wye bus1=p5ulv32905.1.2.3 kV=0.48 Vminpu=0.8 Vmaxpu=1.2 model=1 kW=21.9802 kvar=4.4632699724675415 Phases=3

New Load.load_p5ulv32907 conn=wye bus1=p5ulv32907.1.2 kV=0.2080002494301389 Vminpu=0.8 Vmaxpu=1.2 model=1 kW=6.11006 kvar=1.2407005999934042 Phases=2

New Load.load_p5ulv32908 conn=wye bus1=p5ulv32908.1.2 kV=0.2080002494301389 Vminpu=0.8 Vmaxpu=1.2 model=1 kW=7.66008 kvar=1.5594491004170477 Phases=2

New Load.load_p5ulv32909 conn=wye bus1=p5ulv32909.1.2 kV=0.2080002494301389 Vminpu=0.8 Vmaxpu=1.2 model=1 kW=7.01007 kvar=1.419783306700424 Phases=2

New Load.load_p5ulv33445 conn=wye bus1=p5ulv33445.1.2 kV=0.2080002494301389 Vminpu=0.8 Vmaxpu=1.2 model=1 kW=7.74008 kvar=1.5716902780000437 Phases=2

New Load.load_p5ulv33447 conn=wye bus1=p5ulv33447.1.2 kV=0.2080002494301389 Vminpu=0.8 Vmaxpu=1.2 model=1 kW=15.640200000000002 kvar=5.140685141818456 Phases=2

New Load.load_p5ulv33448 conn=wye bus1=p5ulv33448.1.2.3 kV=0.48 Vminpu=0.8 Vmaxpu=1.2 model=1 kW=144.92099999999996 kvar=29.427464157740527 Phases=3

New Load.load_p5ulv33449 conn=wye bus1=p5ulv33449.1.2 kV=0.2080002494301389 Vminpu=0.8 Vmaxpu=1.2 model=1 kW=5.83006 kvar=1.9203825485622024 Phases=2

New Load.load_p5ulv33450 conn=wye bus1=p5ulv33450.1.2 kV=0.2080002494301389 Vminpu=0.8 Vmaxpu=1.2 model=1 kW=6.24006 kvar=1.270359572425928 Phases=2

New Load.load_p5ulv33460 conn=wye bus1=p5ulv33460.1.2 kV=0.2080002494301389 Vminpu=0.8 Vmaxpu=1.2 model=1 kW=8.230080000000001 kvar=1.6711890217107062 Phases=2

New Load.load_p5ulv33468 conn=wye bus1=p5ulv33468.1.2.3 kV=0.48 Vminpu=0.8 Vmaxpu=1.2 model=1 kW=49.56049999999999 kvar=10.063688750351568 Phases=3

New Load.load_p5ulv34037 conn=wye bus1=p5ulv34037.1.2 kV=0.2080002494301389 Vminpu=0.8 Vmaxpu=1.2 model=1 kW=7.65008 kvar=1.549407620597623 Phases=2

New Load.load_p5ulv34055 conn=wye bus1=p5ulv34055.1.2 kV=0.2080002494301389 Vminpu=0.8 Vmaxpu=1.2 model=1 kW=4.630050000000001 kvar=1.520180218281803 Phases=2

New Load.load_p5ulv34577 conn=wye bus1=p5ulv34577.1.2 kV=0.2080002494301389 Vminpu=0.8 Vmaxpu=1.2 model=1 kW=5.98006 kvar=1.2111704107187142 Phases=2

New Load.load_p5ulv34578 conn=wye bus1=p5ulv34578.1.2 kV=0.2080002494301389 Vminpu=0.8 Vmaxpu=1.2 model=1 kW=7.15007 kvar=1.448138182320505 Phases=2

New Load.load_p5ulv35109 conn=wye bus1=p5ulv35109.1.2.3 kV=0.48 Vminpu=0.8 Vmaxpu=1.2 model=1 kW=92.5709 kvar=30.426583432102017 Phases=3

New Load.load_p5ulv35110 conn=wye bus1=p5ulv35110.1.2 kV=0.2080002494301389 Vminpu=0.8 Vmaxpu=1.2 model=1 kW=5.48005 kvar=1.109900972441596 Phases=2

New Load.load_p5ulv35111 conn=wye bus1=p5ulv35111.1.2 kV=0.2080002494301389 Vminpu=0.8 Vmaxpu=1.2 model=1 kW=7.84008 kvar=1.5919961440634443 Phases=2

New Load.load_p5ulv35114 conn=wye bus1=p5ulv35114.1.2.3 kV=0.48 Vminpu=0.8 Vmaxpu=1.2 model=1 kW=55.82059999999999 kvar=11.3348562717865 Phases=3

New Load.load_p5ulv35116 conn=wye bus1=p5ulv35116.1.2.3 kV=0.48 Vminpu=0.8 Vmaxpu=1.2 model=1 kW=33.8303 kvar=6.869535406846555 Phases=3

New Load.load_p5ulv35117 conn=wye bus1=p5ulv35117.1.2 kV=0.2080002494301389 Vminpu=0.8 Vmaxpu=1.2 model=1 kW=6.43006 kvar=1.3090400208127908 Phases=2

New Load.load_p5ulv35123 conn=wye bus1=p5ulv35123.1.2 kV=0.2080002494301389 Vminpu=0.8 Vmaxpu=1.2 model=1 kW=7.97008 kvar=1.6183937699458648 Phases=2

New Load.load_p5ulv35680 conn=wye bus1=p5ulv35680.1.2 kV=0.2080002494301389 Vminpu=0.8 Vmaxpu=1.2 model=1 kW=8.46008 kvar=1.7178925136565273 Phases=2

New Load.load_p5ulv35684 conn=wye bus1=p5ulv35684.1.2 kV=0.2080002494301389 Vminpu=0.8 Vmaxpu=1.2 model=1 kW=6.29006 kvar=1.280538637790892 Phases=2

New Load.load_p5ulv35689 conn=wye bus1=p5ulv35689.1.2 kV=0.2080002494301389 Vminpu=0.8 Vmaxpu=1.2 model=1 kW=8.99009 kvar=1.8302142749381596 Phases=2

New Load.load_p5ulv36274 conn=wye bus1=p5ulv36274.1.2 kV=0.2080002494301389 Vminpu=0.8 Vmaxpu=1.2 model=1 kW=5.770060000000001 kvar=1.1686380972885935 Phases=2

New Load.load_p5ulv36275 conn=wye bus1=p5ulv36275.1.2 kV=0.2080002494301389 Vminpu=0.8 Vmaxpu=1.2 model=1 kW=6.81007 kvar=1.37927634152888 Phases=2

New Load.load_p5ulv36280 conn=wye bus1=p5ulv36280.1.2 kV=0.2080002494301389 Vminpu=0.8 Vmaxpu=1.2 model=1 kW=8.14008 kvar=1.6486496852679053 Phases=2

New Load.load_p5ulv36821 conn=wye bus1=p5ulv36821.1.2.3 kV=0.48 Vminpu=0.8 Vmaxpu=1.2 model=1 kW=33.0903 kvar=10.876255645600134 Phases=3

New Load.load_p5ulv36825 conn=wye bus1=p5ulv36825.1.2.3 kV=0.48 Vminpu=0.8 Vmaxpu=1.2 model=1 kW=28.720300000000005 kvar=5.831905651006795 Phases=3

New Load.load_p5ulv36826 conn=wye bus1=p5ulv36826.1.2 kV=0.2080002494301389 Vminpu=0.8 Vmaxpu=1.2 model=1 kW=6.41006 kvar=1.3016181981836055 Phases=2

New Load.load_p5ulv36827 conn=wye bus1=p5ulv36827.1.2 kV=0.2080002494301389 Vminpu=0.8 Vmaxpu=1.2 model=1 kW=6.740070000000001 kvar=1.3686295867794334 Phases=2

New Load.load_p5ulv37388 conn=wye bus1=p5ulv37388.1.2 kV=0.2080002494301389 Vminpu=0.8 Vmaxpu=1.2 model=1 kW=6.37006 kvar=1.2901589928032249 Phases=2

New Load.load_p5ulv37389 conn=wye bus1=p5ulv37389.1.2 kV=0.2080002494301389 Vminpu=0.8 Vmaxpu=1.2 model=1 kW=6.28006 kvar=1.2686336247849492 Phases=2

New Load.load_p5ulv37390 conn=wye bus1=p5ulv37390.1.2 kV=0.2080002494301389 Vminpu=0.8 Vmaxpu=1.2 model=1 kW=5.22005 kvar=1.059976361442534 Phases=2

New Load.load_p5ulv37404 conn=wye bus1=p5ulv37404.1.2 kV=0.2080002494301389 Vminpu=0.8 Vmaxpu=1.2 model=1 kW=7.21007 kvar=1.460290271871968 Phases=2

New Load.load_p5ulv37942 conn=wye bus1=p5ulv37942.1.2 kV=0.2080002494301389 Vminpu=0.8 Vmaxpu=1.2 model=1 kW=7.80008 kvar=1.579787844476281 Phases=2

New Load.load_p5ulv37943 conn=wye bus1=p5ulv37943.1.2 kV=0.2080002494301389 Vminpu=0.8 Vmaxpu=1.2 model=1 kW=4.86005 kvar=0.9894153325398525 Phases=2

New Load.load_p5ulv38507 conn=wye bus1=p5ulv38507.1.2.3 kV=0.48 Vminpu=0.8 Vmaxpu=1.2 model=1 kW=27.360299999999995 kvar=5.555745872544547 Phases=3

New Load.load_p5ulv39027 conn=wye bus1=p5ulv39027.1.2 kV=0.2080002494301389 Vminpu=0.8 Vmaxpu=1.2 model=1 kW=8.03008 kvar=1.630577289583905 Phases=2

New Load.load_p5ulv39028 conn=wye bus1=p5ulv39028.1.2 kV=0.2080002494301389 Vminpu=0.8 Vmaxpu=1.2 model=1 kW=9.6401 kvar=1.957505794377865 Phases=2

New Load.load_p5ulv39593 conn=wye bus1=p5ulv39593.1.2 kV=0.2080002494301389 Vminpu=0.8 Vmaxpu=1.2 model=1 kW=7.79008 kvar=1.581843211031744 Phases=2

New Load.load_p5ulv39601 conn=wye bus1=p5ulv39601.1.2 kV=0.2080002494301389 Vminpu=0.8 Vmaxpu=1.2 model=1 kW=7.29007 kvar=1.4803118501281356 Phases=2

New Load.load_p5ulv40120 conn=wye bus1=p5ulv40120.1.2.3 kV=0.48 Vminpu=0.8 Vmaxpu=1.2 model=1 kW=72.0807 kvar=14.636610399561475 Phases=3

New Load.load_p5ulv40121 conn=wye bus1=p5ulv40121.1.2.3 kV=0.48 Vminpu=0.8 Vmaxpu=1.2 model=1 kW=44.70040000000001 kvar=9.076803353804248 Phases=3

New Load.load_p5ulv40123 conn=wye bus1=p5ulv40123.1.2 kV=0.2080002494301389 Vminpu=0.8 Vmaxpu=1.2 model=1 kW=5.82006 kvar=1.1787648385814788 Phases=2

New Load.load_p5ulv40690 conn=wye bus1=p5ulv40690.1.2 kV=0.2080002494301389 Vminpu=0.8 Vmaxpu=1.2 model=1 kW=8.09008 kvar=1.6385229439750197 Phases=2

New Load.load_p5ulv40694 conn=wye bus1=p5ulv40694.1.2 kV=0.2080002494301389 Vminpu=0.8 Vmaxpu=1.2 model=1 kW=5.600060000000001 kvar=1.1400675357543906 Phases=2

New Load.load_p5ulv40696 conn=wye bus1=p5ulv40696.1.2.3 kV=0.48 Vminpu=0.8 Vmaxpu=1.2 model=1 kW=166.622 kvar=33.83404015215907 Phases=3

New Load.load_p5ulv40698 conn=wye bus1=p5ulv40698.1.2 kV=0.2080002494301389 Vminpu=0.8 Vmaxpu=1.2 model=1 kW=7.78008 kvar=1.579812624425404 Phases=2

New Load.load_p5ulv40699 conn=wye bus1=p5ulv40699.1.2 kV=0.2080002494301389 Vminpu=0.8 Vmaxpu=1.2 model=1 kW=8.46008 kvar=1.7178925136565273 Phases=2

New Load.load_p5ulv40704 conn=wye bus1=p5ulv40704.1.2 kV=0.2080002494301389 Vminpu=0.8 Vmaxpu=1.2 model=1 kW=11.6401 kvar=2.3575256264664413 Phases=2

New Load.load_p5ulv41223 conn=wye bus1=p5ulv41223.1.2 kV=0.2080002494301389 Vminpu=0.8 Vmaxpu=1.2 model=1 kW=5.83006 kvar=1.180790186840056 Phases=2

New Load.load_p5ulv41224 conn=wye bus1=p5ulv41224.1.2 kV=0.2080002494301389 Vminpu=0.8 Vmaxpu=1.2 model=1 kW=4.98005 kvar=1.011242282890373 Phases=2

New Load.load_p5ulv41226 conn=wye bus1=p5ulv41226.1.2.3 kV=0.48 Vminpu=0.8 Vmaxpu=1.2 model=1 kW=24.990200000000005 kvar=5.074476540975895 Phases=3

New Load.load_p5ulv41235 conn=wye bus1=p5ulv41235.1.2 kV=0.2080002494301389 Vminpu=0.8 Vmaxpu=1.2 model=1 kW=5.49005 kvar=1.1205344401401856 Phases=2

New Load.load_p5ulv41240 conn=wye bus1=p5ulv41240.1.2 kV=0.2080002494301389 Vminpu=0.8 Vmaxpu=1.2 model=1 kW=10.5301 kvar=2.1382280023421285 Phases=2

New Load.load_p5ulv41811 conn=wye bus1=p5ulv41811.1.2 kV=0.2080002494301389 Vminpu=0.8 Vmaxpu=1.2 model=1 kW=9.5701 kvar=1.9382785369409616 Phases=2

New Load.load_p5ulv41813 conn=wye bus1=p5ulv41813.1.2 kV=0.2080002494301389 Vminpu=0.8 Vmaxpu=1.2 model=1 kW=13.260100000000001 kvar=2.692578145872961 Phases=2

New Load.load_p5ulv41814 conn=wye bus1=p5ulv41814.1.2 kV=0.2080002494301389 Vminpu=0.8 Vmaxpu=1.2 model=1 kW=6.23006 kvar=1.271572534701827 Phases=2

New Load.load_p5ulv41815 conn=wye bus1=p5ulv41815.1.2 kV=0.2080002494301389 Vminpu=0.8 Vmaxpu=1.2 model=1 kW=8.790090000000001 kvar=1.7802993474236821 Phases=2

New Load.load_p5ulv41816 conn=wye bus1=p5ulv41816.1.2 kV=0.2080002494301389 Vminpu=0.8 Vmaxpu=1.2 model=1 kW=7.200070000000001 kvar=1.4582649236133909 Phases=2

New Load.load_p5ulv41817 conn=wye bus1=p5ulv41817.1.2 kV=0.2080002494301389 Vminpu=0.8 Vmaxpu=1.2 model=1 kW=6.62007 kvar=1.3407947246159133 Phases=2

New Load.load_p5ulv41818 conn=wye bus1=p5ulv41818.1.2 kV=0.2080002494301389 Vminpu=0.8 Vmaxpu=1.2 model=1 kW=5.92006 kvar=1.9500279431843162 Phases=2

New Load.load_p5ulv42364 conn=wye bus1=p5ulv42364.1.2.3 kV=0.48 Vminpu=0.8 Vmaxpu=1.2 model=1 kW=23.610200000000003 kvar=4.794255589300968 Phases=3

New Load.load_p5ulv42366 conn=wye bus1=p5ulv42366.1.2 kV=0.2080002494301389 Vminpu=0.8 Vmaxpu=1.2 model=1 kW=3.83004 kvar=0.7797245502085238 Phases=2

New Load.load_p5ulv42367 conn=wye bus1=p5ulv42367.1.2 kV=0.2080002494301389 Vminpu=0.8 Vmaxpu=1.2 model=1 kW=13.0501 kvar=2.6499358271398195 Phases=2

New Load.load_p5ulv42369 conn=wye bus1=p5ulv42369.1.2 kV=0.2080002494301389 Vminpu=0.8 Vmaxpu=1.2 model=1 kW=5.59006 kvar=1.1409467586725162 Phases=2

New Load.load_p5ulv42373 conn=wye bus1=p5ulv42373.1.2 kV=0.2080002494301389 Vminpu=0.8 Vmaxpu=1.2 model=1 kW=8.09008 kvar=1.6385229439750197 Phases=2

New Load.load_p5ulv42904 conn=wye bus1=p5ulv42904.1.2 kV=0.2080002494301389 Vminpu=0.8 Vmaxpu=1.2 model=1 kW=5.74006 kvar=1.1685689187762893 Phases=2

New Load.load_p5ulv42907 conn=wye bus1=p5ulv42907.1.2 kV=0.2080002494301389 Vminpu=0.8 Vmaxpu=1.2 model=1 kW=2.85003 kvar=0.5802128332421591 Phases=2

New Load.load_p5ulv42908 conn=wye bus1=p5ulv42908.1.2 kV=0.2080002494301389 Vminpu=0.8 Vmaxpu=1.2 model=1 kW=17.3002 kvar=3.5129554407004013 Phases=2

New Load.load_p5ulv42909 conn=wye bus1=p5ulv42909.1.2.3 kV=0.48 Vminpu=0.8 Vmaxpu=1.2 model=1 kW=98.77100000000002 kvar=20.05630696948124 Phases=3

New Load.load_p5ulv42910 conn=wye bus1=p5ulv42910.1.2 kV=0.2080002494301389 Vminpu=0.8 Vmaxpu=1.2 model=1 kW=5.33005 kvar=1.0795207485629381 Phases=2

New Load.load_p5ulv43461 conn=wye bus1=p5ulv43461.1.2 kV=0.2080002494301389 Vminpu=0.8 Vmaxpu=1.2 model=1 kW=6.03006 kvar=1.2307519796926671 Phases=2

New Load.load_p5ulv43464 conn=wye bus1=p5ulv43464.1.2 kV=0.2080002494301389 Vminpu=0.8 Vmaxpu=1.2 model=1 kW=7.18007 kvar=1.4617280371003216 Phases=2

New Load.load_p5ulv43466 conn=wye bus1=p5ulv43466.1.2 kV=0.2080002494301389 Vminpu=0.8 Vmaxpu=1.2 model=1 kW=7.26007 kvar=1.4704170131648537 Phases=2

New Load.load_p5ulv44033 conn=wye bus1=p5ulv44033.1.2 kV=0.2080002494301389 Vminpu=0.8 Vmaxpu=1.2 model=1 kW=8.72009 kvar=1.7706897960079746 Phases=2

New Load.load_p5ulv44034 conn=wye bus1=p5ulv44034.1.2 kV=0.2080002494301389 Vminpu=0.8 Vmaxpu=1.2 model=1 kW=7.78008 kvar=1.579812624425404 Phases=2

New Load.load_p5ulv44036 conn=wye bus1=p5ulv44036.1.2.3 kV=0.48 Vminpu=0.8 Vmaxpu=1.2 model=1 kW=25.4003 kvar=8.348674876774679 Phases=3

New Load.load_p5ulv44040 conn=wye bus1=p5ulv44040.1.2 kV=0.2080002494301389 Vminpu=0.8 Vmaxpu=1.2 model=1 kW=7.02007 kvar=1.4291550279324372 Phases=2

New Load.load_p5ulv44043 conn=wye bus1=p5ulv44043.1.2 kV=0.2080002494301389 Vminpu=0.8 Vmaxpu=1.2 model=1 kW=9.16009 kvar=1.8600356066869363 Phases=2

New Load.load_p5ulv44578 conn=wye bus1=p5ulv44578.1.2 kV=0.2080002494301389 Vminpu=0.8 Vmaxpu=1.2 model=1 kW=8.35008 kvar=1.699920202453549 Phases=2

New Load.load_p5ulv44579 conn=wye bus1=p5ulv44579.1.2 kV=0.2080002494301389 Vminpu=0.8 Vmaxpu=1.2 model=1 kW=6.03006 kvar=1.2212971520116003 Phases=2

New Load.load_p5ulv44582 conn=wye bus1=p5ulv44582.1.2 kV=0.2080002494301389 Vminpu=0.8 Vmaxpu=1.2 model=1 kW=8.02008 kvar=1.628546702977565 Phases=2

New Load.load_p5ulv44589 conn=wye bus1=p5ulv44589.1.2 kV=0.2080002494301389 Vminpu=0.8 Vmaxpu=1.2 model=1 kW=7.41007 kvar=1.5085517377791555 Phases=2

New Load.load_p5ulv45142 conn=wye bus1=p5ulv45142.1.2 kV=0.2080002494301389 Vminpu=0.8 Vmaxpu=1.2 model=1 kW=5.47005 kvar=1.110741026601035 Phases=2

New Load.load_p5ulv45147 conn=wye bus1=p5ulv45147.1.2 kV=0.2080002494301389 Vminpu=0.8 Vmaxpu=1.2 model=1 kW=8.72009 kvar=1.7706897960079746 Phases=2

New Load.load_p5ulv45148 conn=wye bus1=p5ulv45148.1.2 kV=0.2080002494301389 Vminpu=0.8 Vmaxpu=1.2 model=1 kW=7.38007 kvar=1.498587129585196 Phases=2

New Load.load_p5ulv45149 conn=wye bus1=p5ulv45149.1.2 kV=0.2080002494301389 Vminpu=0.8 Vmaxpu=1.2 model=1 kW=5.14005 kvar=1.0410391316499712 Phases=2

New Load.load_p5ulv45150 conn=wye bus1=p5ulv45150.1.2 kV=0.2080002494301389 Vminpu=0.8 Vmaxpu=1.2 model=1 kW=5.24005 kvar=1.0612926142357433 Phases=2

New Load.load_p5ulv45160 conn=wye bus1=p5ulv45160.1.2 kV=0.2080002494301389 Vminpu=0.8 Vmaxpu=1.2 model=1 kW=9.5701 kvar=1.9382785369409616 Phases=2

New Load.load_p5ulv45739 conn=wye bus1=p5ulv45739.1.2 kV=0.2080002494301389 Vminpu=0.8 Vmaxpu=1.2 model=1 kW=6.79007 kvar=1.3787825198111334 Phases=2

New Load.load_p5ulv45740 conn=wye bus1=p5ulv45740.1.2 kV=0.2080002494301389 Vminpu=0.8 Vmaxpu=1.2 model=1 kW=10.5501 kvar=2.142289175554809 Phases=2

New Load.load_p5ulv45742 conn=wye bus1=p5ulv45742.1.2 kV=0.2080002494301389 Vminpu=0.8 Vmaxpu=1.2 model=1 kW=8.76009 kvar=1.7788121424333347 Phases=2

New Load.load_p5ulv45744 conn=wye bus1=p5ulv45744.1.2 kV=0.2080002494301389 Vminpu=0.8 Vmaxpu=1.2 model=1 kW=6.42006 kvar=1.300285734096111 Phases=2

New Load.load_p5ulv45745 conn=wye bus1=p5ulv45745.1.2 kV=0.2080002494301389 Vminpu=0.8 Vmaxpu=1.2 model=1 kW=5.90006 kvar=1.2011419279441737 Phases=2

New Load.load_p5ulv45746 conn=wye bus1=p5ulv45746.1.2 kV=0.2080002494301389 Vminpu=0.8 Vmaxpu=1.2 model=1 kW=7.73008 kvar=1.5696596913937038 Phases=2

New Load.load_p5ulv45747 conn=wye bus1=p5ulv45747.1.2 kV=0.2080002494301389 Vminpu=0.8 Vmaxpu=1.2 model=1 kW=5.12005 kvar=1.0396704953791336 Phases=2

New Load.load_p5ulv45748 conn=wye bus1=p5ulv45748.1.2 kV=0.2080002494301389 Vminpu=0.8 Vmaxpu=1.2 model=1 kW=8.35008 kvar=1.691181998698027 Phases=2

New Load.load_p5ulv45749 conn=wye bus1=p5ulv45749.1.2 kV=0.2080002494301389 Vminpu=0.8 Vmaxpu=1.2 model=1 kW=7.61008 kvar=1.5413062275633143 Phases=2

New Load.load_p5ulv45759 conn=wye bus1=p5ulv45759.1.2 kV=0.2080002494301389 Vminpu=0.8 Vmaxpu=1.2 model=1 kW=5.810060000000001 kvar=1.1797830018032032 Phases=2

New Load.load_p5ulv46283 conn=wye bus1=p5ulv46283.1.2 kV=0.2080002494301389 Vminpu=0.8 Vmaxpu=1.2 model=1 kW=5.640060000000001 kvar=1.151151897424806 Phases=2

New Load.load_p5ulv46287 conn=wye bus1=p5ulv46287.1.2 kV=0.2080002494301389 Vminpu=0.8 Vmaxpu=1.2 model=1 kW=10.3601 kvar=2.0982810493685604 Phases=2

New Load.load_p5ulv46289 conn=wye bus1=p5ulv46289.1.2 kV=0.2080002494301389 Vminpu=0.8 Vmaxpu=1.2 model=1 kW=3.91004 kvar=0.7898663736101474 Phases=2

New Load.load_p5ulv46290 conn=wye bus1=p5ulv46290.1.2 kV=0.2080002494301389 Vminpu=0.8 Vmaxpu=1.2 model=1 kW=11.8001 kvar=2.402279784262202 Phases=2

New Load.load_p5ulv46291 conn=wye bus1=p5ulv46291.1.2 kV=0.2080002494301389 Vminpu=0.8 Vmaxpu=1.2 model=1 kW=6.37006 kvar=1.2901589928032249 Phases=2

New Load.load_p5ulv46294 conn=wye bus1=p5ulv46294.1.2 kV=0.2080002494301389 Vminpu=0.8 Vmaxpu=1.2 model=1 kW=5.12005 kvar=1.0396704953791336 Phases=2

New Load.load_p5ulv46840 conn=wye bus1=p5ulv46840.1.2 kV=0.2080002494301389 Vminpu=0.8 Vmaxpu=1.2 model=1 kW=5.33005 kvar=1.0795207485629381 Phases=2

New Load.load_p5ulv46843 conn=wye bus1=p5ulv46843.1.2.3 kV=0.48 Vminpu=0.8 Vmaxpu=1.2 model=1 kW=32.6303 kvar=6.625865014085751 Phases=3

New Load.load_p5ulv46844 conn=wye bus1=p5ulv46844.1.2 kV=0.2080002494301389 Vminpu=0.8 Vmaxpu=1.2 model=1 kW=14.7401 kvar=4.8500651761655025 Phases=2

New Load.load_p5ulv46846 conn=wye bus1=p5ulv46846.1.2 kV=0.2080002494301389 Vminpu=0.8 Vmaxpu=1.2 model=1 kW=10.8701 kvar=2.2072679469576904 Phases=2
