Clear

New Circuit.substation_p3uhs23_69 bus1=p3uhs23_69 pu=1.0 basekV=69.0 R1=1e-05 X1=1e-05 R0=1e-05 X0=1e-05

Redirect p3uhs23_1247--p3udt6423/Transformers.dss
Redirect p3uhs23_1247--p3udt18382/Transformers.dss
Redirect p3uhs23_1247--p3udt10896/Transformers.dss
Redirect Transformers.dss
Redirect Regulators.dss
Redirect p3uhs23_1247--p3udt6423/Loads.dss
Redirect p3uhs23_1247--p3udt18382/Loads.dss
Redirect p3uhs23_1247--p3udt10896/Loads.dss
Redirect p3uhs23_1247--p3udt6423/LineCodes.dss
Redirect p3uhs23_1247--p3udt18382/LineCodes.dss
Redirect p3uhs23_1247--p3udt10896/LineCodes.dss
Redirect LineCodes.dss
Redirect p3uhs23_1247--p3udt6423/Lines.dss
Redirect p3uhs23_1247--p3udt18382/Lines.dss
Redirect p3uhs23_1247--p3udt10896/Lines.dss
Redirect Lines.dss
Redirect p3uhs23_1247--p3udt6423/Capacitors.dss
Redirect p3uhs23_1247--p3udt18382/Capacitors.dss
Redirect p3uhs23_1247--p3udt10896/Capacitors.dss

Set Voltagebases=[0.2080002494301389, 0.48, 7.199560000000001, 12.47, 69.0]

Calcvoltagebases

Buscoords Buscoords.dss

Solve