New Line.l(r:p1udt14lv-p1ulv12616) Units=km Length=0.0178897 bus1=p1udt14lv.1.2 bus2=p1ulv12616.1.2 switch=n enabled=y phases=2 Linecode=1P_UG_AL_1/0_Brenau_0_416_0_2_2_2_2

New Line.l(r:p1udt14lv-p1ulv17644) Units=km Length=0.01954 bus1=p1udt14lv.1.2 bus2=p1ulv17644.1.2 switch=n enabled=y phases=2 Linecode=1P_UG_AL_1/0_Brenau_0_416_0_2_2_2_2

New Line.l(r:p1udm31-p1ulv15) Units=km Length=0.023994800000000004 bus1=p1udm31.1.2 bus2=p1ulv15.1.2 switch=n enabled=y phases=2 Linecode=1P_UG_AL_1/0_Brenau_0_416_0_2_2_2_2

New Line.l(r:p1udm31-p1udt14lv) Units=km Length=0.0185829 bus1=p1udt14lv.1.2 bus2=p1udm31.1.2 switch=n enabled=y phases=2 Linecode=1P_UG_AL_1/0_Brenau_0_416_0_2_2_2_2

New Line.l(r:p1udm34-p1ulv23416) Units=km Length=0.022570300000000005 bus1=p1udm34.1.2 bus2=p1ulv23416.1.2 switch=n enabled=y phases=2 Linecode=1P_UG_AL_1/0_Brenau_0_416_0_2_2_2_2

New Line.l(r:p1udm34-p1ulv52465) Units=km Length=0.0189669 bus1=p1udm34.1.2 bus2=p1ulv52465.1.2 switch=n enabled=y phases=2 Linecode=1P_UG_AL_1/0_Brenau_0_416_0_2_2_2_2

New Line.l(r:p1udm34-p1udt14lv) Units=km Length=0.018573 bus1=p1udt14lv.1.2 bus2=p1udm34.1.2 switch=n enabled=y phases=2 Linecode=1P_UG_AL_4/0_Sweetbriar_0_416_0_2_2_2_2

New Line.l(r:p1udt15lv-p1ulv16) Units=km Length=0.0148365 bus1=p1udt15lv.1.2 bus2=p1ulv16.1.2 switch=n enabled=y phases=2 Linecode=1P_UG_AL_1/0_Brenau_0_416_0_2_2_2_2

New Line.l(r:p1udm37-p1ulv34873) Units=km Length=0.013958100000000001 bus1=p1udm37.1.2 bus2=p1ulv34873.1.2 switch=n enabled=y phases=2 Linecode=1P_UG_AL_1/0_Brenau_0_416_0_2_2_2_2

New Line.l(r:p1udm37-p1udt15lv) Units=km Length=0.00755641 bus1=p1udt15lv.1.2 bus2=p1udm37.1.2 switch=n enabled=y phases=2 Linecode=1P_UG_AL_1/0_Brenau_0_416_0_2_2_2_2

New Line.l(r:p1udm38-p1ulv55593) Units=km Length=0.0147366 bus1=p1udm38.1.2 bus2=p1ulv55593.1.2 switch=n enabled=y phases=2 Linecode=1P_UG_AL_1/0_Brenau_0_416_0_2_2_2_2

New Line.l(r:p1udm38-p1udt15lv) Units=km Length=0.0075632 bus1=p1udt15lv.1.2 bus2=p1udm38.1.2 switch=n enabled=y phases=2 Linecode=1P_UG_AL_1/0_Brenau_0_416_0_2_2_2_2

New Line.l(r:p1udt16lv-p1ulv36163) Units=km Length=0.0168781 bus1=p1udt16lv.1.2 bus2=p1ulv36163.1.2 switch=n enabled=y phases=2 Linecode=1P_UG_AL_1/0_Brenau_0_416_0_2_2_2_2

New Line.l(r:p1udt16lv-p1ulv38654) Units=km Length=0.0194472 bus1=p1udt16lv.1.2 bus2=p1ulv38654.1.2 switch=n enabled=y phases=2 Linecode=1P_UG_AL_1/0_Brenau_0_416_0_2_2_2_2

New Line.l(r:p1udm39-p1ulv17) Units=km Length=0.0163844 bus1=p1udm39.1.2 bus2=p1ulv17.1.2 switch=n enabled=y phases=2 Linecode=1P_UG_AL_1/0_Brenau_0_416_0_2_2_2_2

New Line.l(r:p1udm39-p1udt16lv) Units=km Length=0.019228 bus1=p1udt16lv.1.2 bus2=p1udm39.1.2 switch=n enabled=y phases=2 Linecode=1P_UG_AL_1/0_Brenau_0_416_0_2_2_2_2

New Line.l(r:p1udm90-p1ulv19630) Units=km Length=0.0171252 bus1=p1udm90.1.2 bus2=p1ulv19630.1.2 switch=n enabled=y phases=2 Linecode=1P_UG_AL_1/0_Brenau_0_416_0_2_2_2_2

New Line.l(r:p1udm90-p1ulv30393) Units=km Length=0.016322600000000003 bus1=p1udm90.1.2 bus2=p1ulv30393.1.2 switch=n enabled=y phases=2 Linecode=1P_UG_AL_1/0_Brenau_0_416_0_2_2_2_2

New Line.l(r:p1udm90-p1ulv39936) Units=km Length=0.01939 bus1=p1udm90.1.2 bus2=p1ulv39936.1.2 switch=n enabled=y phases=2 Linecode=1P_UG_AL_2/0_Converse_0_416_0_2_2_2_2

New Line.l(r:p1udm90-p1udt32lv) Units=km Length=0.00982756 bus1=p1udt32lv.1.2 bus2=p1udm90.1.2 switch=n enabled=y phases=2 Linecode=1P_UG_AL_4/0_Sweetbriar_0_416_0_2_2_2_2

New Line.l(r:p1udm91-p1ulv22133) Units=km Length=0.0216376 bus1=p1udm91.1.2 bus2=p1ulv22133.1.2 switch=n enabled=y phases=2 Linecode=1P_UG_AL_1/0_Brenau_0_416_0_2_2_2_2

New Line.l(r:p1udm89-p1ulv33) Units=km Length=0.0167682 bus1=p1udm89.1.2 bus2=p1ulv33.1.2 switch=n enabled=y phases=2 Linecode=1P_UG_AL_1/0_Brenau_0_416_0_2_2_2_2

New Line.l(r:p1udm89-p1udm91) Units=km Length=0.00990883 bus1=p1udm91.1.2 bus2=p1udm89.1.2 switch=n enabled=y phases=2 Linecode=1P_UG_AL_1/0_Brenau_0_416_0_2_2_2_2

New Line.l(r:p1udm91-p1udt32lv) Units=km Length=0.00991799 bus1=p1udt32lv.1.2 bus2=p1udm91.1.2 switch=n enabled=y phases=2 Linecode=1P_UG_AL_4/0_Sweetbriar_0_416_0_2_2_2_2

New Line.l(r:p1udm104-p1ulv37) Units=km Length=0.00591062 bus1=p1udm104.1.2 bus2=p1ulv37.1.2 switch=n enabled=y phases=2 Linecode=1P_OH_AL_2/0_Rucina_0_416_0_2_2_2_2

New Line.l(r:p1udm105-p1ulv50563) Units=km Length=0.0107345 bus1=p1udm105.1.2 bus2=p1ulv50563.1.2 switch=n enabled=y phases=2 Linecode=1P_OH_AL_2/0_Rucina_0_416_0_2_2_2_2

New Line.l(r:p1udm104-p1udm105) Units=km Length=0.08116520000000002 bus1=p1udm104.1.2 bus2=p1udm105.1.2 switch=n enabled=y phases=2 Linecode=1P_OH_AL_4/0_Zuzara_0_416_0_2_2_2_2

New Line.l(r:p1udm104-p1udt36lv) Units=km Length=0.017202 bus1=p1udt36lv.1.2 bus2=p1udm104.1.2 switch=n enabled=y phases=2 Linecode=1P_OH_AL_2/0_Rucina_0_416_0_2_2_2_2

New Line.l(r:p1udt52lv-p1ulv53) Units=km Length=0.0176571 bus1=p1udt52lv.1.2 bus2=p1ulv53.1.2 switch=n enabled=y phases=2 Linecode=1P_UG_AL_1/0_Brenau_0_416_0_2_2_2_2

New Line.l(r:p1udm156-p1ulv2606) Units=km Length=0.0144712 bus1=p1udm156.1.2 bus2=p1ulv2606.1.2 switch=n enabled=y phases=2 Linecode=1P_UG_AL_1/0_Brenau_0_416_0_2_2_2_2

New Line.l(r:p1udm156-p1ulv5767) Units=km Length=0.0166453 bus1=p1udm156.1.2 bus2=p1ulv5767.1.2 switch=n enabled=y phases=2 Linecode=1P_UG_AL_1/0_Brenau_0_416_0_2_2_2_2

New Line.l(r:p1udm156-p1udt52lv) Units=km Length=0.00922207 bus1=p1udt52lv.1.2 bus2=p1udm156.1.2 switch=n enabled=y phases=2 Linecode=1P_UG_AL_4/0_Sweetbriar_0_416_0_2_2_2_2

New Line.l(r:p1udm158-p1ulv23457) Units=km Length=0.0145064 bus1=p1udm158.1.2 bus2=p1ulv23457.1.2 switch=n enabled=y phases=2 Linecode=1P_UG_AL_1/0_Brenau_0_416_0_2_2_2_2

New Line.l(r:p1udm159-p1ulv58616) Units=km Length=0.0158327 bus1=p1udm159.1.2 bus2=p1ulv58616.1.2 switch=n enabled=y phases=2 Linecode=1P_UG_AL_1/0_Brenau_0_416_0_2_2_2_2

New Line.l(r:p1udm158-p1udm159) Units=km Length=0.0184504 bus1=p1udm158.1.2 bus2=p1udm159.1.2 switch=n enabled=y phases=2 Linecode=1P_UG_AL_1/0_Brenau_0_416_0_2_2_2_2

New Line.l(r:p1udm158-p1udt52lv) Units=km Length=0.00922831 bus1=p1udt52lv.1.2 bus2=p1udm158.1.2 switch=n enabled=y phases=2 Linecode=1P_UG_AL_4/0_Sweetbriar_0_416_0_2_2_2_2

New Line.l(r:p1udt53lv-p1ulv54) Units=km Length=0.0205112 bus1=p1udt53lv.1.2 bus2=p1ulv54.1.2 switch=n enabled=y phases=2 Linecode=1P_UG_AL_1/0_Brenau_0_416_0_2_2_2_2

New Line.l(r:p1udt54lv-p1ulv55) Units=km Length=0.0166753 bus1=p1udt54lv.1.2 bus2=p1ulv55.1.2 switch=n enabled=y phases=2 Linecode=1P_OH_AL_2/0_Rucina_0_416_0_2_2_2_2

New Line.l(r:p1udt54lv-p1ulv29164) Units=km Length=0.0168808 bus1=p1udt54lv.1.2 bus2=p1ulv29164.1.2 switch=n enabled=y phases=2 Linecode=1P_OH_AL_2/0_Rucina_0_416_0_2_2_2_2

New Line.l(r:p1udt54lv-p1ulv54383) Units=km Length=0.0184362 bus1=p1udt54lv.1.2 bus2=p1ulv54383.1.2 switch=n enabled=y phases=2 Linecode=1P_OH_AL_2/0_Rucina_0_416_0_2_2_2_2

New Line.l(r:p1udm162-p1ulv4505) Units=km Length=0.018793 bus1=p1udm162.1.2 bus2=p1ulv4505.1.2 switch=n enabled=y phases=2 Linecode=1P_OH_AL_2/0_Rucina_0_416_0_2_2_2_2

New Line.l(r:p1udm162-p1udt54lv) Units=km Length=0.0183956 bus1=p1udt54lv.1.2 bus2=p1udm162.1.2 switch=n enabled=y phases=2 Linecode=1P_OH_AL_2/0_Rucina_0_416_0_2_2_2_2

New Line.l(r:p1udm164-p1ulv31045) Units=km Length=0.019058100000000005 bus1=p1udm164.1.2 bus2=p1ulv31045.1.2 switch=n enabled=y phases=2 Linecode=1P_OH_AL_2/0_Rucina_0_416_0_2_2_2_2

New Line.l(r:p1udm165-p1ulv41808) Units=km Length=0.0183317 bus1=p1udm165.1.2 bus2=p1ulv41808.1.2 switch=n enabled=y phases=2 Linecode=1P_OH_AL_2/0_Rucina_0_416_0_2_2_2_2

New Line.l(r:p1udm164-p1udm165) Units=km Length=0.0183895 bus1=p1udm164.1.2 bus2=p1udm165.1.2 switch=n enabled=y phases=2 Linecode=1P_OH_AL_2/0_Rucina_0_416_0_2_2_2_2

New Line.l(r:p1udm164-p1udt54lv) Units=km Length=0.0183895 bus1=p1udt54lv.1.2 bus2=p1udm164.1.2 switch=n enabled=y phases=2 Linecode=1P_OH_AL_2/0_Rucina_0_416_0_2_2_2_2

New Line.l(r:p1udt55lv-p1ulv56) Units=km Length=0.0190787 bus1=p1udt55lv.1.2 bus2=p1ulv56.1.2 switch=n enabled=y phases=2 Linecode=1P_UG_AL_1/0_Brenau_0_416_0_2_2_2_2

New Line.l(r:p1udt55lv-p1ulv48754) Units=km Length=0.0162547 bus1=p1udt55lv.1.2 bus2=p1ulv48754.1.2 switch=n enabled=y phases=2 Linecode=1P_UG_AL_1/0_Brenau_0_416_0_2_2_2_2

New Line.l(r:p1udm169-p1ulv51828) Units=km Length=0.0177278 bus1=p1udm169.1.2 bus2=p1ulv51828.1.2 switch=n enabled=y phases=2 Linecode=1P_UG_AL_1/0_Brenau_0_416_0_2_2_2_2

New Line.l(r:p1udm169-p1ulv58038) Units=km Length=0.0176673 bus1=p1udm169.1.2 bus2=p1ulv58038.1.2 switch=n enabled=y phases=2 Linecode=1P_UG_AL_1/0_Brenau_0_416_0_2_2_2_2

New Line.l(r:p1udm169-p1udt55lv) Units=km Length=0.0195976 bus1=p1udt55lv.1.2 bus2=p1udm169.1.2 switch=n enabled=y phases=2 Linecode=1P_UG_AL_4/0_Sweetbriar_0_416_0_2_2_2_2

New Line.l(r:p1udm171-p1ulv58623) Units=km Length=0.0176119 bus1=p1udm171.1.2 bus2=p1ulv58623.1.2 switch=n enabled=y phases=2 Linecode=1P_UG_AL_1/0_Brenau_0_416_0_2_2_2_2

New Line.l(r:p1udm171-p1udt55lv) Units=km Length=0.049012700000000006 bus1=p1udt55lv.1.2 bus2=p1udm171.1.2 switch=n enabled=y phases=2 Linecode=1P_UG_AL_1/0_Brenau_0_416_0_2_2_2_2

New Line.l(r:p1udt56lv-p1ulv18333) Units=km Length=0.0142708 bus1=p1udt56lv.1.2 bus2=p1ulv18333.1.2 switch=n enabled=y phases=2 Linecode=1P_UG_AL_1/0_Brenau_0_416_0_2_2_2_2

New Line.l(r:p1udm174-p1ulv19014) Units=km Length=0.0187846 bus1=p1udm174.1.2 bus2=p1ulv19014.1.2 switch=n enabled=y phases=2 Linecode=1P_UG_AL_1/0_Brenau_0_416_0_2_2_2_2

New Line.l(r:p1udm172-p1ulv57) Units=km Length=0.013162500000000002 bus1=p1udm172.1.2 bus2=p1ulv57.1.2 switch=n enabled=y phases=2 Linecode=1P_UG_AL_1/0_Brenau_0_416_0_2_2_2_2

New Line.l(r:p1udm172-p1udm174) Units=km Length=0.00987164 bus1=p1udm174.1.2 bus2=p1udm172.1.2 switch=n enabled=y phases=2 Linecode=1P_UG_AL_1/0_Brenau_0_416_0_2_2_2_2

New Line.l(r:p1udm174-p1udt56lv) Units=km Length=0.009862340000000002 bus1=p1udt56lv.1.2 bus2=p1udm174.1.2 switch=n enabled=y phases=2 Linecode=1P_UG_AL_4/0_Sweetbriar_0_416_0_2_2_2_2

New Line.l(r:p1udm175-p1ulv40571) Units=km Length=0.0175572 bus1=p1udm175.1.2 bus2=p1ulv40571.1.2 switch=n enabled=y phases=2 Linecode=1P_UG_AL_1/0_Brenau_0_416_0_2_2_2_2

New Line.l(r:p1udm176-p1ulv50589) Units=km Length=0.0143246 bus1=p1udm176.1.2 bus2=p1ulv50589.1.2 switch=n enabled=y phases=2 Linecode=1P_UG_AL_1/0_Brenau_0_416_0_2_2_2_2

New Line.l(r:p1udm175-p1udm176) Units=km Length=0.00987164 bus1=p1udm175.1.2 bus2=p1udm176.1.2 switch=n enabled=y phases=2 Linecode=1P_UG_AL_1/0_Brenau_0_416_0_2_2_2_2

New Line.l(r:p1udm175-p1udt56lv) Units=km Length=0.00986797 bus1=p1udt56lv.1.2 bus2=p1udm175.1.2 switch=n enabled=y phases=2 Linecode=1P_UG_AL_4/0_Sweetbriar_0_416_0_2_2_2_2

New Line.l(r:p1udt60lv-p1ulv61) Units=km Length=0.0236512 bus1=p1udt60lv.1.2 bus2=p1ulv61.1.2 switch=n enabled=y phases=2 Linecode=1P_UG_AL_1/0_Brenau_0_416_0_2_2_2_2

New Line.l(r:p1udt60lv-p1ulv42457) Units=km Length=0.0260091 bus1=p1udt60lv.1.2 bus2=p1ulv42457.1.2 switch=n enabled=y phases=2 Linecode=1P_UG_AL_1/0_Brenau_0_416_0_2_2_2_2

New Line.l(r:p1udt60lv-p1ulv46916) Units=km Length=0.0212182 bus1=p1udt60lv.1.2 bus2=p1ulv46916.1.2 switch=n enabled=y phases=2 Linecode=1P_UG_AL_1/0_Brenau_0_416_0_2_2_2_2

New Line.l(r:p1udm191-p1ulv62) Units=km Length=0.0141732 bus1=p1udm191.1.2 bus2=p1ulv62.1.2 switch=n enabled=y phases=2 Linecode=1P_UG_AL_4/0_Sweetbriar_0_416_0_2_2_2_2

New Line.l(r:p1udm191-p1ulv7048) Units=km Length=0.0176201 bus1=p1udm191.1.2 bus2=p1ulv7048.1.2 switch=n enabled=y phases=2 Linecode=1P_UG_AL_4/0_Sweetbriar_0_416_0_2_2_2_2

New Line.l(r:p1udm191-p1udt61lv) Units=km Length=0.009895880000000001 bus1=p1udt61lv.1.2 bus2=p1udm191.1.2 switch=n enabled=y phases=2 Linecode=1P_UG_AL_4/0_Sweetbriar_0_416_0_2_2_2_2

New Line.l(r:p1udm193-p1ulv28585) Units=km Length=0.0156023 bus1=p1udm193.1.2 bus2=p1ulv28585.1.2 switch=n enabled=y phases=2 Linecode=1P_UG_AL_2/0_Converse_0_416_0_2_2_2_2

New Line.l(r:p1udm193-p1udt61lv) Units=km Length=0.009895880000000001 bus1=p1udt61lv.1.2 bus2=p1udm193.1.2 switch=n enabled=y phases=2 Linecode=1P_UG_AL_2/0_Converse_0_416_0_2_2_2_2

New Line.l(r:p1udm2448-p1ulv673) Units=km Length=0.0206902 bus1=p1udm2448.1.2 bus2=p1ulv673.1.2 switch=n enabled=y phases=2 Linecode=1P_UG_AL_1/0_Brenau_0_416_0_2_2_2_2

New Line.l(r:p1udm2448-p1udt663lv) Units=km Length=0.0585068 bus1=p1udt663lv.1.2 bus2=p1udm2448.1.2 switch=n enabled=y phases=2 Linecode=1P_UG_AL_1/0_Brenau_0_416_0_2_2_2_2

New Line.l(r:p1udm2450-p1ulv46880) Units=km Length=0.0160969 bus1=p1udm2450.1.2 bus2=p1ulv46880.1.2 switch=n enabled=y phases=2 Linecode=1P_UG_AL_1/0_Brenau_0_416_0_2_2_2_2

New Line.l(r:p1udm2450-p1ulv46881) Units=km Length=0.015107 bus1=p1udm2450.1.2 bus2=p1ulv46881.1.2 switch=n enabled=y phases=2 Linecode=1P_UG_AL_1/0_Brenau_0_416_0_2_2_2_2

New Line.l(r:p1udm2449-p1ulv44335) Units=km Length=0.0170416 bus1=p1udm2449.1.2 bus2=p1ulv44335.1.2 switch=n enabled=y phases=2 Linecode=1P_UG_AL_1/0_Brenau_0_416_0_2_2_2_2

New Line.l(r:p1udm2449-p1udm2450) Units=km Length=0.00974755 bus1=p1udm2450.1.2 bus2=p1udm2449.1.2 switch=n enabled=y phases=2 Linecode=1P_UG_AL_1/0_Brenau_0_416_0_2_2_2_2

New Line.l(r:p1udm2450-p1udt663lv) Units=km Length=0.0195083 bus1=p1udt663lv.1.2 bus2=p1udm2450.1.2 switch=n enabled=y phases=2 Linecode=1P_UG_AL_4/0_Sweetbriar_0_416_0_2_2_2_2

New Line.l(r:p1udt664lv-p1ulv6384) Units=km Length=0.015143 bus1=p1udt664lv.1.2 bus2=p1ulv6384.1.2 switch=n enabled=y phases=2 Linecode=1P_UG_AL_1/0_Brenau_0_416_0_2_2_2_2

New Line.l(r:p1udm2453-p1ulv3867) Units=km Length=0.016555600000000004 bus1=p1udm2453.1.2 bus2=p1ulv3867.1.2 switch=n enabled=y phases=2 Linecode=1P_UG_AL_1/0_Brenau_0_416_0_2_2_2_2

New Line.l(r:p1udm2452-p1ulv674) Units=km Length=0.0147834 bus1=p1udm2452.1.2 bus2=p1ulv674.1.2 switch=n enabled=y phases=2 Linecode=1P_UG_AL_1/0_Brenau_0_416_0_2_2_2_2

New Line.l(r:p1udm2452-p1ulv51799) Units=km Length=0.0171046 bus1=p1udm2452.1.2 bus2=p1ulv51799.1.2 switch=n enabled=y phases=2 Linecode=1P_UG_AL_1/0_Brenau_0_416_0_2_2_2_2

New Line.l(r:p1udm2452-p1udm2453) Units=km Length=0.0097788 bus1=p1udm2453.1.2 bus2=p1udm2452.1.2 switch=n enabled=y phases=2 Linecode=1P_UG_AL_4/0_Sweetbriar_0_416_0_2_2_2_2

New Line.l(r:p1udm2453-p1udt664lv) Units=km Length=0.00978841 bus1=p1udt664lv.1.2 bus2=p1udm2453.1.2 switch=n enabled=y phases=2 Linecode=1P_UG_AL_4/0_Sweetbriar_0_416_0_2_2_2_2

New Line.l(r:p1udm2455-p1ulv45622) Units=km Length=0.0224052 bus1=p1udm2455.1.2 bus2=p1ulv45622.1.2 switch=n enabled=y phases=2 Linecode=1P_UG_AL_2/0_Converse_0_416_0_2_2_2_2

New Line.l(r:p1udm2455-p1udt664lv) Units=km Length=0.039137200000000004 bus1=p1udt664lv.1.2 bus2=p1udm2455.1.2 switch=n enabled=y phases=2 Linecode=1P_UG_AL_2/0_Converse_0_416_0_2_2_2_2

New Line.l(r:p1udt665lv-p1ulv675) Units=km Length=0.020659 bus1=p1udt665lv.1.2 bus2=p1ulv675.1.2 switch=n enabled=y phases=2 Linecode=1P_UG_AL_1/0_Brenau_0_416_0_2_2_2_2

New Line.l(r:p1udt665lv-p1ulv23417) Units=km Length=0.013794700000000002 bus1=p1udt665lv.1.2 bus2=p1ulv23417.1.2 switch=n enabled=y phases=2 Linecode=1P_UG_AL_1/0_Brenau_0_416_0_2_2_2_2

New Line.l(r:p1udt666lv-p1ulv676) Units=km Length=0.0228981 bus1=p1udt666lv.1.2 bus2=p1ulv676.1.2 switch=n enabled=y phases=2 Linecode=1P_UG_AL_1/0_Brenau_0_416_0_2_2_2_2

New Line.l(r:p1udt666lv-p1ulv1953) Units=km Length=0.0228463 bus1=p1udt666lv.1.2 bus2=p1ulv1953.1.2 switch=n enabled=y phases=2 Linecode=1P_UG_AL_1/0_Brenau_0_416_0_2_2_2_2

New Line.l(r:p1udt666lv-p1ulv59796) Units=km Length=0.0210444 bus1=p1udt666lv.1.2 bus2=p1ulv59796.1.2 switch=n enabled=y phases=2 Linecode=1P_UG_AL_1/0_Brenau_0_416_0_2_2_2_2

New Line.l(r:p1udm2492-p1ulv29142) Units=km Length=0.012872 bus1=p1udm2492.1.2 bus2=p1ulv29142.1.2 switch=n enabled=y phases=2 Linecode=1P_UG_AL_1/0_Brenau_0_416_0_2_2_2_2

New Line.l(r:p1udm2491-p1ulv688) Units=km Length=0.0111509 bus1=p1udm2491.1.2 bus2=p1ulv688.1.2 switch=n enabled=y phases=2 Linecode=1P_UG_AL_1/0_Brenau_0_416_0_2_2_2_2

New Line.l(r:p1udm2491-p1udm2492) Units=km Length=0.0089692 bus1=p1udm2492.1.2 bus2=p1udm2491.1.2 switch=n enabled=y phases=2 Linecode=1P_UG_AL_1/0_Brenau_0_416_0_2_2_2_2

New Line.l(r:p1udm2492-p1udt678lv) Units=km Length=0.00896157 bus1=p1udt678lv.1.2 bus2=p1udm2492.1.2 switch=n enabled=y phases=2 Linecode=1P_UG_AL_4/0_Sweetbriar_0_416_0_2_2_2_2

New Line.l(r:p1udm2494-p1ulv58039) Units=km Length=0.0135344 bus1=p1udm2494.1.2 bus2=p1ulv58039.1.2 switch=n enabled=y phases=2 Linecode=1P_UG_AL_1/0_Brenau_0_416_0_2_2_2_2

New Line.l(r:p1udm2493-p1ulv51173) Units=km Length=0.014320400000000002 bus1=p1udm2493.1.2 bus2=p1ulv51173.1.2 switch=n enabled=y phases=2 Linecode=1P_UG_AL_1/0_Brenau_0_416_0_2_2_2_2

New Line.l(r:p1udm2493-p1udm2494) Units=km Length=0.00858846 bus1=p1udm2494.1.2 bus2=p1udm2493.1.2 switch=n enabled=y phases=2 Linecode=1P_UG_AL_1/0_Brenau_0_416_0_2_2_2_2

New Line.l(r:p1udm2494-p1udt678lv) Units=km Length=0.0177702 bus1=p1udt678lv.1.2 bus2=p1udm2494.1.2 switch=n enabled=y phases=2 Linecode=1P_UG_AL_4/0_Sweetbriar_0_416_0_2_2_2_2

New Line.l(r:p1udm2514-p1ulv695) Units=km Length=0.01658 bus1=p1udm2514.1.2 bus2=p1ulv695.1.2 switch=n enabled=y phases=2 Linecode=1P_UG_AL_1/0_Brenau_0_416_0_2_2_2_2

New Line.l(r:p1udm2514-p1ulv15124) Units=km Length=0.0141956 bus1=p1udm2514.1.2 bus2=p1ulv15124.1.2 switch=n enabled=y phases=2 Linecode=1P_UG_AL_1/0_Brenau_0_416_0_2_2_2_2

New Line.l(r:p1udm2514-p1udt685lv) Units=km Length=0.00901882 bus1=p1udt685lv.1.2 bus2=p1udm2514.1.2 switch=n enabled=y phases=2 Linecode=1P_UG_AL_4/0_Sweetbriar_0_416_0_2_2_2_2

New Line.l(r:p1udm2516-p1ulv49963) Units=km Length=0.016265 bus1=p1udm2516.1.2 bus2=p1ulv49963.1.2 switch=n enabled=y phases=2 Linecode=1P_UG_AL_1/0_Brenau_0_416_0_2_2_2_2

New Line.l(r:p1udm2516-p1udt685lv) Units=km Length=0.008667100000000002 bus1=p1udt685lv.1.2 bus2=p1udm2516.1.2 switch=n enabled=y phases=2 Linecode=1P_UG_AL_1/0_Brenau_0_416_0_2_2_2_2

New Line.l(r:p1udt686lv-p1ulv696) Units=km Length=0.0147491 bus1=p1udt686lv.1.2 bus2=p1ulv696.1.2 switch=n enabled=y phases=2 Linecode=1P_UG_AL_1/0_Brenau_0_416_0_2_2_2_2

New Line.l(r:p1udm2518-p1ulv20907) Units=km Length=0.0153561 bus1=p1udm2518.1.2 bus2=p1ulv20907.1.2 switch=n enabled=y phases=2 Linecode=1P_UG_AL_1/0_Brenau_0_416_0_2_2_2_2

New Line.l(r:p1udm2518-p1ulv61051) Units=km Length=0.0154317 bus1=p1udm2518.1.2 bus2=p1ulv61051.1.2 switch=n enabled=y phases=2 Linecode=1P_UG_AL_1/0_Brenau_0_416_0_2_2_2_2

New Line.l(r:p1udm2518-p1udt686lv) Units=km Length=0.0197806 bus1=p1udt686lv.1.2 bus2=p1udm2518.1.2 switch=n enabled=y phases=2 Linecode=1P_UG_AL_4/0_Sweetbriar_0_416_0_2_2_2_2

New Line.l(r:p1udm2519-p1ulv25985) Units=km Length=0.0160622 bus1=p1udm2519.1.2 bus2=p1ulv25985.1.2 switch=n enabled=y phases=2 Linecode=1P_UG_AL_1/0_Brenau_0_416_0_2_2_2_2

New Line.l(r:p1udm2520-p1ulv55613) Units=km Length=0.015825 bus1=p1udm2520.1.2 bus2=p1ulv55613.1.2 switch=n enabled=y phases=2 Linecode=1P_UG_AL_1/0_Brenau_0_416_0_2_2_2_2

New Line.l(r:p1udm2519-p1udm2520) Units=km Length=0.00987912 bus1=p1udm2519.1.2 bus2=p1udm2520.1.2 switch=n enabled=y phases=2 Linecode=1P_UG_AL_1/0_Brenau_0_416_0_2_2_2_2

New Line.l(r:p1udm2519-p1udt686lv) Units=km Length=0.00989256 bus1=p1udt686lv.1.2 bus2=p1udm2519.1.2 switch=n enabled=y phases=2 Linecode=1P_UG_AL_4/0_Sweetbriar_0_416_0_2_2_2_2

New Line.l(r:p1udm2522-p1ulv697) Units=km Length=0.014901500000000002 bus1=p1udm2522.1.2 bus2=p1ulv697.1.2 switch=n enabled=y phases=2 Linecode=1P_UG_AL_4/0_Sweetbriar_0_416_0_2_2_2_2

New Line.l(r:p1udm2525-p1ulv45628) Units=km Length=0.0161864 bus1=p1udm2525.1.2 bus2=p1ulv45628.1.2 switch=n enabled=y phases=2 Linecode=1P_UG_AL_1/0_Brenau_0_416_0_2_2_2_2

New Line.l(r:p1udm2522-p1udm2525) Units=km Length=0.00994435 bus1=p1udm2522.1.2 bus2=p1udm2525.1.2 switch=n enabled=y phases=2 Linecode=1P_UG_AL_1/0_Brenau_0_416_0_2_2_2_2

New Line.l(r:p1udm2522-p1udt687lv) Units=km Length=0.00994435 bus1=p1udt687lv.1.2 bus2=p1udm2522.1.2 switch=n enabled=y phases=2 Linecode=1P_UG_AL_4/0_Sweetbriar_0_416_0_2_2_2_2

New Line.l(r:p1udm2523-p1ulv12006) Units=km Length=0.0177811 bus1=p1udm2523.1.2 bus2=p1ulv12006.1.2 switch=n enabled=y phases=2 Linecode=1P_UG_AL_1/0_Brenau_0_416_0_2_2_2_2

New Line.l(r:p1udm2524-p1ulv14484) Units=km Length=0.0174197 bus1=p1udm2524.1.2 bus2=p1ulv14484.1.2 switch=n enabled=y phases=2 Linecode=1P_UG_AL_1/0_Brenau_0_416_0_2_2_2_2

New Line.l(r:p1udm2523-p1udm2524) Units=km Length=0.0099535 bus1=p1udm2523.1.2 bus2=p1udm2524.1.2 switch=n enabled=y phases=2 Linecode=1P_UG_AL_1/0_Brenau_0_416_0_2_2_2_2

New Line.l(r:p1udm2523-p1udt687lv) Units=km Length=0.00994839 bus1=p1udt687lv.1.2 bus2=p1udm2523.1.2 switch=n enabled=y phases=2 Linecode=1P_UG_AL_4/0_Sweetbriar_0_416_0_2_2_2_2

New Line.l(r:p1udt688lv-p1ulv698) Units=km Length=0.00568698 bus1=p1udt688lv.1.2 bus2=p1ulv698.1.2 switch=n enabled=y phases=2 Linecode=1P_OH_AL_2/0_Rucina_0_416_0_2_2_2_2

New Line.l(r:p1udm2527-p1ulv8902) Units=km Length=0.00433029 bus1=p1udm2527.1.2 bus2=p1ulv8902.1.2 switch=n enabled=y phases=2 Linecode=1P_OH_AL_2/0_Rucina_0_416_0_2_2_2_2

New Line.l(r:p1udm2527-p1udt688lv) Units=km Length=0.0195739 bus1=p1udt688lv.1.2 bus2=p1udm2527.1.2 switch=n enabled=y phases=2 Linecode=1P_OH_AL_2/0_Rucina_0_416_0_2_2_2_2

New Line.l(r:p1udt701lv-p1ulv711) Units=km Length=0.022324000000000004 bus1=p1udt701lv.1.2 bus2=p1ulv711.1.2 switch=n enabled=y phases=2 Linecode=1P_UG_AL_1/0_Brenau_0_416_0_2_2_2_2

New Line.l(r:p1udt701lv-p1ulv60465) Units=km Length=0.0147818 bus1=p1udt701lv.1.2 bus2=p1ulv60465.1.2 switch=n enabled=y phases=2 Linecode=1P_UG_AL_1/0_Brenau_0_416_0_2_2_2_2

New Line.l(r:p1udm2581-p1ulv1320) Units=km Length=0.0170526 bus1=p1udm2581.1.2 bus2=p1ulv1320.1.2 switch=n enabled=y phases=2 Linecode=1P_UG_AL_1/0_Brenau_0_416_0_2_2_2_2

New Line.l(r:p1udm2581-p1udt701lv) Units=km Length=0.009044 bus1=p1udt701lv.1.2 bus2=p1udm2581.1.2 switch=n enabled=y phases=2 Linecode=1P_UG_AL_1/0_Brenau_0_416_0_2_2_2_2

New Line.l(r:p1udt702lv-p1ulv712) Units=km Length=0.0271934 bus1=p1udt702lv.1.2 bus2=p1ulv712.1.2 switch=n enabled=y phases=2 Linecode=1P_UG_AL_1/0_Brenau_0_416_0_2_2_2_2

New Line.l(r:p1udt702lv-p1ulv51827) Units=km Length=0.023424700000000003 bus1=p1udt702lv.1.2 bus2=p1ulv51827.1.2 switch=n enabled=y phases=2 Linecode=1P_UG_AL_1/0_Brenau_0_416_0_2_2_2_2

New Line.l(r:p1udt703lv-p1ulv13287) Units=km Length=0.0183295 bus1=p1udt703lv.1.2 bus2=p1ulv13287.1.2 switch=n enabled=y phases=2 Linecode=1P_UG_AL_1/0_Brenau_0_416_0_2_2_2_2

New Line.l(r:p1udm2585-p1ulv713) Units=km Length=0.0173044 bus1=p1udm2585.1.2 bus2=p1ulv713.1.2 switch=n enabled=y phases=2 Linecode=1P_UG_AL_1/0_Brenau_0_416_0_2_2_2_2

New Line.l(r:p1udm2585-p1udt703lv) Units=km Length=0.00966056 bus1=p1udt703lv.1.2 bus2=p1udm2585.1.2 switch=n enabled=y phases=2 Linecode=1P_UG_AL_1/0_Brenau_0_416_0_2_2_2_2

New Line.l(r:p1udt704lv-p1ulv714) Units=km Length=0.0154465 bus1=p1udt704lv.1.2 bus2=p1ulv714.1.2 switch=n enabled=y phases=2 Linecode=1P_UG_AL_1/0_Brenau_0_416_0_2_2_2_2

New Line.l(r:p1udt704lv-p1ulv27932) Units=km Length=0.014123900000000002 bus1=p1udt704lv.1.2 bus2=p1ulv27932.1.2 switch=n enabled=y phases=2 Linecode=1P_UG_AL_1/0_Brenau_0_416_0_2_2_2_2

New Line.l(r:p1udm2589-p1ulv49962) Units=km Length=0.0160245 bus1=p1udm2589.1.2 bus2=p1ulv49962.1.2 switch=n enabled=y phases=2 Linecode=1P_UG_AL_1/0_Brenau_0_416_0_2_2_2_2

New Line.l(r:p1udm2589-p1udt704lv) Units=km Length=0.009784300000000001 bus1=p1udt704lv.1.2 bus2=p1udm2589.1.2 switch=n enabled=y phases=2 Linecode=1P_UG_AL_1/0_Brenau_0_416_0_2_2_2_2

New Line.l(r:p1udm2590-p1ulv715) Units=km Length=0.0155902 bus1=p1udm2590.1.2 bus2=p1ulv715.1.2 switch=n enabled=y phases=2 Linecode=1P_UG_AL_1/0_Brenau_0_416_0_2_2_2_2

New Line.l(r:p1udm2590-p1udt705lv) Units=km Length=0.0387861 bus1=p1udt705lv.1.2 bus2=p1udm2590.1.2 switch=n enabled=y phases=2 Linecode=1P_UG_AL_1/0_Brenau_0_416_0_2_2_2_2

New Line.l(r:p1udm2592-p1ulv12040) Units=km Length=0.0173336 bus1=p1udm2592.1.2 bus2=p1ulv12040.1.2 switch=n enabled=y phases=2 Linecode=1P_UG_AL_1/0_Brenau_0_416_0_2_2_2_2

New Line.l(r:p1udm2591-p1ulv12038) Units=km Length=0.0117049 bus1=p1udm2591.1.2 bus2=p1ulv12038.1.2 switch=n enabled=y phases=2 Linecode=1P_UG_AL_1/0_Brenau_0_416_0_2_2_2_2

New Line.l(r:p1udm2591-p1udm2592) Units=km Length=0.00969868 bus1=p1udm2592.1.2 bus2=p1udm2591.1.2 switch=n enabled=y phases=2 Linecode=1P_UG_AL_1/0_Brenau_0_416_0_2_2_2_2

New Line.l(r:p1udm2592-p1udt705lv) Units=km Length=0.0193948 bus1=p1udt705lv.1.2 bus2=p1udm2592.1.2 switch=n enabled=y phases=2 Linecode=1P_UG_AL_4/0_Sweetbriar_0_416_0_2_2_2_2

New Line.l(r:p1udm2593-p1ulv716) Units=km Length=0.017568 bus1=p1udm2593.1.2 bus2=p1ulv716.1.2 switch=n enabled=y phases=2 Linecode=1P_UG_AL_1/0_Brenau_0_416_0_2_2_2_2

New Line.l(r:p1udm2593-p1ulv53779) Units=km Length=0.011717500000000002 bus1=p1udm2593.1.2 bus2=p1ulv53779.1.2 switch=n enabled=y phases=2 Linecode=1P_UG_AL_1/0_Brenau_0_416_0_2_2_2_2

New Line.l(r:p1udm2593-p1udt706lv) Units=km Length=0.0179066 bus1=p1udt706lv.1.2 bus2=p1udm2593.1.2 switch=n enabled=y phases=2 Linecode=1P_OH_AL_2/0_Rucina_0_416_0_2_2_2_2

New Line.l(r:p1udm2594-p1ulv26012) Units=km Length=0.0101926 bus1=p1udm2594.1.2 bus2=p1ulv26012.1.2 switch=n enabled=y phases=2 Linecode=1P_UG_AL_1/0_Brenau_0_416_0_2_2_2_2

New Line.l(r:p1udm2594-p1udt706lv) Units=km Length=0.0290672 bus1=p1udt706lv.1.2 bus2=p1udm2594.1.2 switch=n enabled=y phases=2 Linecode=1P_OH_AL_4/0_Zuzara_0_416_0_2_2_2_2

New Line.l(r:p1udm4588-p1ulv1280) Units=km Length=0.020095300000000003 bus1=p1udm4588.1.2 bus2=p1ulv1280.1.2 switch=n enabled=y phases=2 Linecode=1P_UG_AL_1/0_Brenau_0_416_0_2_2_2_2

New Line.l(r:p1udm4588-p1udt1245lv) Units=km Length=0.0951143 bus1=p1udt1245lv.1.2 bus2=p1udm4588.1.2 switch=n enabled=y phases=2 Linecode=1P_UG_AL_1/0_Brenau_0_416_0_2_2_2_2

New Line.l(r:p1udm4589-p1ulv3869) Units=km Length=0.0153072 bus1=p1udm4589.1.2 bus2=p1ulv3869.1.2 switch=n enabled=y phases=2 Linecode=1P_UG_AL_4/0_Sweetbriar_0_416_0_2_2_2_2

New Line.l(r:p1udm4589-p1udt1245lv) Units=km Length=0.00942357 bus1=p1udt1245lv.1.2 bus2=p1udm4589.1.2 switch=n enabled=y phases=2 Linecode=1P_UG_AL_4/0_Sweetbriar_0_416_0_2_2_2_2

New Line.l(r:p1udt1246lv-p1ulv41155) Units=km Length=0.0202812 bus1=p1udt1246lv.1.2 bus2=p1ulv41155.1.2 switch=n enabled=y phases=2 Linecode=1P_UG_AL_1/0_Brenau_0_416_0_2_2_2_2

New Line.l(r:p1udm4590-p1ulv1281) Units=km Length=0.0223734 bus1=p1udm4590.1.2 bus2=p1ulv1281.1.2 switch=n enabled=y phases=2 Linecode=1P_UG_AL_1/0_Brenau_0_416_0_2_2_2_2

New Line.l(r:p1udm4590-p1udt1246lv) Units=km Length=0.0244095 bus1=p1udt1246lv.1.2 bus2=p1udm4590.1.2 switch=n enabled=y phases=2 Linecode=1P_UG_AL_1/0_Brenau_0_416_0_2_2_2_2

New Line.l(r:p1udm4593-p1ulv49315) Units=km Length=0.0186935 bus1=p1udm4593.1.2 bus2=p1ulv49315.1.2 switch=n enabled=y phases=2 Linecode=1P_UG_AL_1/0_Brenau_0_416_0_2_2_2_2

New Line.l(r:p1udm4591-p1ulv20889) Units=km Length=0.0189587 bus1=p1udm4591.1.2 bus2=p1ulv20889.1.2 switch=n enabled=y phases=2 Linecode=1P_UG_AL_1/0_Brenau_0_416_0_2_2_2_2

New Line.l(r:p1udm4591-p1udm4593) Units=km Length=0.00857483 bus1=p1udm4593.1.2 bus2=p1udm4591.1.2 switch=n enabled=y phases=2 Linecode=1P_UG_AL_1/0_Brenau_0_416_0_2_2_2_2

New Line.l(r:p1udm4593-p1udt1246lv) Units=km Length=0.0171467 bus1=p1udt1246lv.1.2 bus2=p1udm4593.1.2 switch=n enabled=y phases=2 Linecode=1P_UG_AL_4/0_Sweetbriar_0_416_0_2_2_2_2

New Line.l(r:p1udt1247lv-p1ulv1282) Units=km Length=0.0156265 bus1=p1udt1247lv.1.2 bus2=p1ulv1282.1.2 switch=n enabled=y phases=2 Linecode=1P_UG_AL_1/0_Brenau_0_416_0_2_2_2_2

New Line.l(r:p1udm4595-p1ulv2567) Units=km Length=0.0130855 bus1=p1udm4595.1.2 bus2=p1ulv2567.1.2 switch=n enabled=y phases=2 Linecode=1P_UG_AL_1/0_Brenau_0_416_0_2_2_2_2

New Line.l(r:p1udm4595-p1udt1247lv) Units=km Length=0.007567360000000001 bus1=p1udt1247lv.1.2 bus2=p1udm4595.1.2 switch=n enabled=y phases=2 Linecode=1P_UG_AL_1/0_Brenau_0_416_0_2_2_2_2

New Line.l(r:p1udm4596-p1ulv26597) Units=km Length=0.0138136 bus1=p1udm4596.1.2 bus2=p1ulv26597.1.2 switch=n enabled=y phases=2 Linecode=1P_UG_AL_1/0_Brenau_0_416_0_2_2_2_2

New Line.l(r:p1udm4596-p1udt1247lv) Units=km Length=0.0151982 bus1=p1udt1247lv.1.2 bus2=p1udm4596.1.2 switch=n enabled=y phases=2 Linecode=1P_UG_AL_1/0_Brenau_0_416_0_2_2_2_2

New Line.l(r:p1udt1248lv-p1ulv45613) Units=km Length=0.0150205 bus1=p1udt1248lv.1.2 bus2=p1ulv45613.1.2 switch=n enabled=y phases=2 Linecode=1P_UG_AL_1/0_Brenau_0_416_0_2_2_2_2

New Line.l(r:p1udt1248lv-p1ulv52466) Units=km Length=0.0173061 bus1=p1udt1248lv.1.2 bus2=p1ulv52466.1.2 switch=n enabled=y phases=2 Linecode=1P_UG_AL_1/0_Brenau_0_416_0_2_2_2_2

New Line.l(r:p1udm4597-p1ulv1283) Units=km Length=0.013293200000000002 bus1=p1udm4597.1.2 bus2=p1ulv1283.1.2 switch=n enabled=y phases=2 Linecode=1P_UG_AL_1/0_Brenau_0_416_0_2_2_2_2

New Line.l(r:p1udm4597-p1udt1248lv) Units=km Length=0.00886072 bus1=p1udt1248lv.1.2 bus2=p1udm4597.1.2 switch=n enabled=y phases=2 Linecode=1P_UG_AL_1/0_Brenau_0_416_0_2_2_2_2

New Line.l(r:p1udt1261lv-p1ulv48141) Units=km Length=0.014923 bus1=p1udt1261lv.1.2 bus2=p1ulv48141.1.2 switch=n enabled=y phases=2 Linecode=1P_UG_AL_1/0_Brenau_0_416_0_2_2_2_2

New Line.l(r:p1udm4640-p1ulv5117) Units=km Length=0.014583 bus1=p1udm4640.1.2 bus2=p1ulv5117.1.2 switch=n enabled=y phases=2 Linecode=1P_UG_AL_1/0_Brenau_0_416_0_2_2_2_2

New Line.l(r:p1udm4639-p1ulv1297) Units=km Length=0.0154541 bus1=p1udm4639.1.2 bus2=p1ulv1297.1.2 switch=n enabled=y phases=2 Linecode=1P_UG_AL_1/0_Brenau_0_416_0_2_2_2_2

New Line.l(r:p1udm4639-p1ulv14505) Units=km Length=0.017052900000000003 bus1=p1udm4639.1.2 bus2=p1ulv14505.1.2 switch=n enabled=y phases=2 Linecode=1P_UG_AL_1/0_Brenau_0_416_0_2_2_2_2

New Line.l(r:p1udm4639-p1udm4640) Units=km Length=0.00772739 bus1=p1udm4640.1.2 bus2=p1udm4639.1.2 switch=n enabled=y phases=2 Linecode=1P_UG_AL_4/0_Sweetbriar_0_416_0_2_2_2_2
