New Line.l(r:p4udt0lv-p4ulv1) Units=km Length=0.043347 bus1=p4udt0lv.1.2 bus2=p4ulv1.1.2 switch=n enabled=y phases=2 Linecode=1P_OH_AL_4/0_Zuzara_0_416_0_2_2_2_2

New Line.l(r:p4udt1lv-p4ulv37753) Units=km Length=0.036033 bus1=p4udt1lv.1.2 bus2=p4ulv37753.1.2 switch=n enabled=y phases=2 Linecode=1P_OH_AL_4/0_Zuzara_0_416_0_2_2_2_2

New Line.l(r:p4udm1-p4ulv2) Units=km Length=0.0872107 bus1=p4udm1.1.2 bus2=p4ulv2.1.2 switch=n enabled=y phases=2 Linecode=1P_OH_AL_4/0_Zuzara_0_416_0_2_2_2_2

New Line.l(r:p4udm1-p4ulv23035) Units=km Length=0.0552891 bus1=p4udm1.1.2 bus2=p4ulv23035.1.2 switch=n enabled=y phases=2 Linecode=1P_OH_AL_4/0_Zuzara_0_416_0_2_2_2_2

New Line.l(r:p4udm1-p4udt1lv) Units=km Length=0.0164344 bus1=p4udt1lv.1.2 bus2=p4udm1.1.2 switch=n enabled=y phases=2 Linecode=1P_OH_AL_2/0_Rucina_0_416_0_2_2_2_2

New Line.l(r:p4udm3-p4ulv29318) Units=km Length=0.0800415 bus1=p4udm3.1.2 bus2=p4ulv29318.1.2 switch=n enabled=y phases=2 Linecode=1P_OH_AL_4/0_Zuzara_0_416_0_2_2_2_2

New Line.l(r:p4udm3-p4udt1lv) Units=km Length=0.0331681 bus1=p4udt1lv.1.2 bus2=p4udm3.1.2 switch=n enabled=y phases=2 Linecode=1P_OH_AL_4/0_Zuzara_0_416_0_2_2_2_2

New Line.l(r:p4udm8-p4ulv4) Units=km Length=0.0482556 bus1=p4udm8.1.2 bus2=p4ulv4.1.2 switch=n enabled=y phases=2 Linecode=1P_OH_AL_4/0_Zuzara_0_416_0_2_2_2_2

New Line.l(r:p4udm10-p4ulv10105) Units=km Length=0.07363680000000002 bus1=p4udm10.1.2 bus2=p4ulv10105.1.2 switch=n enabled=y phases=2 Linecode=1P_OH_AL_4/0_Zuzara_0_416_0_2_2_2_2

New Line.l(r:p4udm10-p4udm8) Units=km Length=0.0148965 bus1=p4udm8.1.2 bus2=p4udm10.1.2 switch=n enabled=y phases=2 Linecode=1P_OH_AL_2/0_Rucina_0_416_0_2_2_2_2

New Line.l(r:p4udm8-p4udt3lv) Units=km Length=0.0148882 bus1=p4udt3lv.1.2 bus2=p4udm8.1.2 switch=n enabled=y phases=2 Linecode=1P_OH_AL_2/0_Rucina_0_416_0_2_2_2_2

New Line.l(r:p4udm9-p4ulv5024) Units=km Length=0.0453578 bus1=p4udm9.1.2 bus2=p4ulv5024.1.2 switch=n enabled=y phases=2 Linecode=1P_OH_AL_4/0_Zuzara_0_416_0_2_2_2_2

New Line.l(r:p4udm9-p4ulv29769) Units=km Length=0.0523518 bus1=p4udm9.1.2 bus2=p4ulv29769.1.2 switch=n enabled=y phases=2 Linecode=1P_OH_AL_4/0_Zuzara_0_416_0_2_2_2_2

New Line.l(r:p4udm9-p4udt3lv) Units=km Length=0.0148965 bus1=p4udt3lv.1.2 bus2=p4udm9.1.2 switch=n enabled=y phases=2 Linecode=1P_OH_AL_2/0_Rucina_0_416_0_2_2_2_2

New Line.l(r:p4udt4lv-p4ulv5) Units=km Length=0.0210445 bus1=p4udt4lv.1.2 bus2=p4ulv5.1.2 switch=n enabled=y phases=2 Linecode=1P_OH_AL_2/0_Rucina_0_416_0_2_2_2_2

New Line.l(r:p4udt4lv-p4ulv18764) Units=km Length=0.0456901 bus1=p4udt4lv.1.2 bus2=p4ulv18764.1.2 switch=n enabled=y phases=2 Linecode=1P_OH_AL_4/0_Zuzara_0_416_0_2_2_2_2

New Line.l(r:p4udt5lv-p4ulv40254) Units=km Length=0.025811 bus1=p4udt5lv.1.2 bus2=p4ulv40254.1.2 switch=n enabled=y phases=2 Linecode=1P_OH_AL_2/0_Rucina_0_416_0_2_2_2_2

New Line.l(r:p4udm14-p4ulv6) Units=km Length=0.0406822 bus1=p4udm14.1.2 bus2=p4ulv6.1.2 switch=n enabled=y phases=2 Linecode=1P_OH_AL_4/0_Zuzara_0_416_0_2_2_2_2

New Line.l(r:p4udm14-p4udt5lv) Units=km Length=0.0179452 bus1=p4udt5lv.1.2 bus2=p4udm14.1.2 switch=n enabled=y phases=2 Linecode=1P_OH_AL_2/0_Rucina_0_416_0_2_2_2_2

New Line.l(r:p4udt6lv-p4ulv38597) Units=km Length=0.0411761 bus1=p4udt6lv.1.2 bus2=p4ulv38597.1.2 switch=n enabled=y phases=2 Linecode=1P_OH_AL_4/0_Zuzara_0_416_0_2_2_2_2

New Line.l(r:p4udm16-p4ulv7) Units=km Length=0.0484845 bus1=p4udm16.1.2 bus2=p4ulv7.1.2 switch=n enabled=y phases=2 Linecode=1P_OH_AL_4/0_Zuzara_0_416_0_2_2_2_2

New Line.l(r:p4udm16-p4udt6lv) Units=km Length=0.0194564 bus1=p4udt6lv.1.2 bus2=p4udm16.1.2 switch=n enabled=y phases=2 Linecode=1P_OH_AL_2/0_Rucina_0_416_0_2_2_2_2

New Line.l(r:p4udt7lv-p4ulv8) Units=km Length=0.0548232 bus1=p4udt7lv.1.2 bus2=p4ulv8.1.2 switch=n enabled=y phases=2 Linecode=1P_OH_AL_4/0_Zuzara_0_416_0_2_2_2_2

New Line.l(r:p4udm19-p4ulv33544) Units=km Length=0.0525975 bus1=p4udm19.1.2 bus2=p4ulv33544.1.2 switch=n enabled=y phases=2 Linecode=1P_OH_AL_4/0_Zuzara_0_416_0_2_2_2_2

New Line.l(r:p4udm19-p4ulv40679) Units=km Length=0.0621482 bus1=p4udm19.1.2 bus2=p4ulv40679.1.2 switch=n enabled=y phases=2 Linecode=1P_OH_AL_4/0_Zuzara_0_416_0_2_2_2_2

New Line.l(r:p4udm19-p4udt7lv) Units=km Length=0.01939 bus1=p4udt7lv.1.2 bus2=p4udm19.1.2 switch=n enabled=y phases=2 Linecode=1P_OH_AL_2/0_Rucina_0_416_0_2_2_2_2

New Line.l(r:p4udt8lv-p4ulv9) Units=km Length=0.0340657 bus1=p4udt8lv.1.2 bus2=p4ulv9.1.2 switch=n enabled=y phases=2 Linecode=1P_OH_AL_4/0_Zuzara_0_416_0_2_2_2_2

New Line.l(r:p4udt8lv-p4ulv38211) Units=km Length=0.0836636 bus1=p4udt8lv.1.2 bus2=p4ulv38211.1.2 switch=n enabled=y phases=2 Linecode=1P_OH_AL_4/0_Zuzara_0_416_0_2_2_2_2

New Line.l(r:p4udt439lv-p4ulv445) Units=km Length=0.12533 bus1=p4udt439lv.1.2 bus2=p4ulv445.1.2 switch=n enabled=y phases=2 Linecode=1P_OH_AL_4/0_Zuzara_0_416_0_2_2_2_2

New Line.l(r:p4udm1167-p4ulv2501) Units=km Length=0.0396139 bus1=p4udm1167.1.2 bus2=p4ulv2501.1.2 switch=n enabled=y phases=2 Linecode=1P_OH_AL_4/0_Zuzara_0_416_0_2_2_2_2

New Line.l(r:p4udm1167-p4udt439lv) Units=km Length=0.0342262 bus1=p4udt439lv.1.2 bus2=p4udm1167.1.2 switch=n enabled=y phases=2 Linecode=1P_OH_AL_4/0_Zuzara_0_416_0_2_2_2_2

New Line.l(r:p4udt440lv-p4ulv446) Units=km Length=0.0266236 bus1=p4udt440lv.1.2 bus2=p4ulv446.1.2 switch=n enabled=y phases=2 Linecode=1P_UG_AL_1/0_Brenau_0_416_0_2_2_2_2

New Line.l(r:p4udm1169-p4ulv4225) Units=km Length=0.0577991 bus1=p4udm1169.1.2 bus2=p4ulv4225.1.2 switch=n enabled=y phases=2 Linecode=1P_UG_AL_1/0_Brenau_0_416_0_2_2_2_2

New Line.l(r:p4udm1170-p4ulv16170) Units=km Length=0.0392076 bus1=p4udm1170.1.2 bus2=p4ulv16170.1.2 switch=n enabled=y phases=2 Linecode=1P_UG_AL_1/0_Brenau_0_416_0_2_2_2_2

New Line.l(r:p4udm1169-p4udm1170) Units=km Length=0.029068900000000005 bus1=p4udm1169.1.2 bus2=p4udm1170.1.2 switch=n enabled=y phases=2 Linecode=1P_UG_AL_1/0_Brenau_0_416_0_2_2_2_2

New Line.l(r:p4udm1169-p4udt440lv) Units=km Length=0.00969087 bus1=p4udt440lv.1.2 bus2=p4udm1169.1.2 switch=n enabled=y phases=2 Linecode=1P_UG_AL_1/0_Brenau_0_416_0_2_2_2_2

New Line.l(r:p4udm1171-p4ulv36066) Units=km Length=0.0537746 bus1=p4udm1171.1.2 bus2=p4ulv36066.1.2 switch=n enabled=y phases=2 Linecode=1P_UG_AL_1/0_Brenau_0_416_0_2_2_2_2

New Line.l(r:p4udm1172-p4ulv42351) Units=km Length=0.0342113 bus1=p4udm1172.1.2 bus2=p4ulv42351.1.2 switch=n enabled=y phases=2 Linecode=1P_UG_AL_1/0_Brenau_0_416_0_2_2_2_2

New Line.l(r:p4udm1171-p4udm1172) Units=km Length=0.029068900000000005 bus1=p4udm1171.1.2 bus2=p4udm1172.1.2 switch=n enabled=y phases=2 Linecode=1P_UG_AL_1/0_Brenau_0_416_0_2_2_2_2

New Line.l(r:p4udm1171-p4udt440lv) Units=km Length=0.00968498 bus1=p4udt440lv.1.2 bus2=p4udm1171.1.2 switch=n enabled=y phases=2 Linecode=1P_UG_AL_2/0_Converse_0_416_0_2_2_2_2

New Line.l(r:p4udt441lv-p4ulv447) Units=km Length=0.03804040000000001 bus1=p4udt441lv.1.2 bus2=p4ulv447.1.2 switch=n enabled=y phases=2 Linecode=1P_UG_AL_1/0_Brenau_0_416_0_2_2_2_2

New Line.l(r:p4udm1174-p4ulv12262) Units=km Length=0.0283682 bus1=p4udm1174.1.2 bus2=p4ulv12262.1.2 switch=n enabled=y phases=2 Linecode=1P_UG_AL_1/0_Brenau_0_416_0_2_2_2_2

New Line.l(r:p4udm1174-p4ulv14855) Units=km Length=0.0232974 bus1=p4udm1174.1.2 bus2=p4ulv14855.1.2 switch=n enabled=y phases=2 Linecode=1P_UG_AL_1/0_Brenau_0_416_0_2_2_2_2

New Line.l(r:p4udm1174-p4udt441lv) Units=km Length=0.00993014 bus1=p4udt441lv.1.2 bus2=p4udm1174.1.2 switch=n enabled=y phases=2 Linecode=1P_UG_AL_4/0_Sweetbriar_0_416_0_2_2_2_2

New Line.l(r:p4udm1176-p4ulv37752) Units=km Length=0.032161 bus1=p4udm1176.1.2 bus2=p4ulv37752.1.2 switch=n enabled=y phases=2 Linecode=1P_UG_AL_1/0_Brenau_0_416_0_2_2_2_2

New Line.l(r:p4udm1176-p4udt441lv) Units=km Length=0.0198687 bus1=p4udt441lv.1.2 bus2=p4udm1176.1.2 switch=n enabled=y phases=2 Linecode=1P_UG_AL_1/0_Brenau_0_416_0_2_2_2_2

New Line.l(r:p4udt442lv-p4ulv448) Units=km Length=0.015535700000000001 bus1=p4udt442lv.1.2 bus2=p4ulv448.1.2 switch=n enabled=y phases=2 Linecode=1P_OH_AL_2/0_Rucina_0_416_0_2_2_2_2

New Line.l(r:p4udm1178-p4ulv10530) Units=km Length=0.0314556 bus1=p4udm1178.1.2 bus2=p4ulv10530.1.2 switch=n enabled=y phases=2 Linecode=1P_OH_AL_4/0_Zuzara_0_416_0_2_2_2_2

New Line.l(r:p4udm1178-p4udt442lv) Units=km Length=0.0178399 bus1=p4udt442lv.1.2 bus2=p4udm1178.1.2 switch=n enabled=y phases=2 Linecode=1P_OH_AL_2/0_Rucina_0_416_0_2_2_2_2

New Line.l(r:p4udm1179-p4ulv22204) Units=km Length=0.0197478 bus1=p4udm1179.1.2 bus2=p4ulv22204.1.2 switch=n enabled=y phases=2 Linecode=1P_OH_AL_2/0_Rucina_0_416_0_2_2_2_2

New Line.l(r:p4udm1179-p4ulv35243) Units=km Length=0.022502000000000005 bus1=p4udm1179.1.2 bus2=p4ulv35243.1.2 switch=n enabled=y phases=2 Linecode=1P_OH_AL_2/0_Rucina_0_416_0_2_2_2_2

New Line.l(r:p4udm1180-p4ulv31025) Units=km Length=0.0222422 bus1=p4udm1180.1.2 bus2=p4ulv31025.1.2 switch=n enabled=y phases=2 Linecode=1P_OH_AL_2/0_Rucina_0_416_0_2_2_2_2

New Line.l(r:p4udm1179-p4udm1180) Units=km Length=0.0178399 bus1=p4udm1179.1.2 bus2=p4udm1180.1.2 switch=n enabled=y phases=2 Linecode=1P_OH_AL_2/0_Rucina_0_416_0_2_2_2_2

New Line.l(r:p4udm1179-p4udt442lv) Units=km Length=0.0178399 bus1=p4udt442lv.1.2 bus2=p4udm1179.1.2 switch=n enabled=y phases=2 Linecode=1P_OH_AL_2/0_Rucina_0_416_0_2_2_2_2

New Line.l(r:p4udt443lv-p4ulv449) Units=km Length=0.0186768 bus1=p4udt443lv.1.2 bus2=p4ulv449.1.2 switch=n enabled=y phases=2 Linecode=1P_OH_AL_2/0_Rucina_0_416_0_2_2_2_2

New Line.l(r:p4udm1183-p4ulv34413) Units=km Length=0.0468348 bus1=p4udm1183.1.2 bus2=p4ulv34413.1.2 switch=n enabled=y phases=2 Linecode=1P_OH_AL_4/0_Zuzara_0_416_0_2_2_2_2

New Line.l(r:p4udm1183-p4udt443lv) Units=km Length=0.0188021 bus1=p4udt443lv.1.2 bus2=p4udm1183.1.2 switch=n enabled=y phases=2 Linecode=1P_OH_AL_2/0_Rucina_0_416_0_2_2_2_2

New Line.l(r:p4udt444lv-p4ulv450) Units=km Length=0.04018100000000001 bus1=p4udt444lv.1.2 bus2=p4ulv450.1.2 switch=n enabled=y phases=2 Linecode=1P_OH_AL_4/0_Zuzara_0_416_0_2_2_2_2

New Line.l(r:p4udt445lv-p4ulv451) Units=km Length=0.0262774 bus1=p4udt445lv.1.2 bus2=p4ulv451.1.2 switch=n enabled=y phases=2 Linecode=1P_OH_AL_2/0_Rucina_0_416_0_2_2_2_2

New Line.l(r:p4udt445lv-p4ulv32691) Units=km Length=0.0592012 bus1=p4udt445lv.1.2 bus2=p4ulv32691.1.2 switch=n enabled=y phases=2 Linecode=1P_OH_AL_4/0_Zuzara_0_416_0_2_2_2_2

New Line.l(r:p4udm1186-p4ulv2506) Units=km Length=0.0765913 bus1=p4udm1186.1.2 bus2=p4ulv2506.1.2 switch=n enabled=y phases=2 Linecode=1P_OH_AL_4/0_Zuzara_0_416_0_2_2_2_2

New Line.l(r:p4udm1186-p4udt445lv) Units=km Length=0.0154458 bus1=p4udt445lv.1.2 bus2=p4udm1186.1.2 switch=n enabled=y phases=2 Linecode=1P_OH_AL_2/0_Rucina_0_416_0_2_2_2_2

New Line.l(r:p4udt446lv-p4ulv452) Units=km Length=0.0254112 bus1=p4udt446lv.1.2 bus2=p4ulv452.1.2 switch=n enabled=y phases=2 Linecode=1P_OH_AL_2/0_Rucina_0_416_0_2_2_2_2

New Line.l(r:p4udm1189-p4ulv30618) Units=km Length=0.024131 bus1=p4udm1189.1.2 bus2=p4ulv30618.1.2 switch=n enabled=y phases=2 Linecode=1P_OH_AL_2/0_Rucina_0_416_0_2_2_2_2

New Line.l(r:p4udm1189-p4udt446lv) Units=km Length=0.014769 bus1=p4udt446lv.1.2 bus2=p4udm1189.1.2 switch=n enabled=y phases=2 Linecode=1P_OH_AL_2/0_Rucina_0_416_0_2_2_2_2

New Line.l(r:p4udt447lv-p4ulv453) Units=km Length=0.08865560000000001 bus1=p4udt447lv.1.2 bus2=p4ulv453.1.2 switch=n enabled=y phases=2 Linecode=1P_OH_AL_4/0_Zuzara_0_416_0_2_2_2_2

New Line.l(r:p4udt447lv-p4ulv12699) Units=km Length=0.0326192 bus1=p4udt447lv.1.2 bus2=p4ulv12699.1.2 switch=n enabled=y phases=2 Linecode=1P_OH_AL_4/0_Zuzara_0_416_0_2_2_2_2

New Line.l(r:p4udt449lv-p4ulv455) Units=km Length=0.0326933 bus1=p4udt449lv.1.2 bus2=p4ulv455.1.2 switch=n enabled=y phases=2 Linecode=1P_OH_AL_4/0_Zuzara_0_416_0_2_2_2_2

New Line.l(r:p4udt449lv-p4ulv19583) Units=km Length=0.08289290000000002 bus1=p4udt449lv.1.2 bus2=p4ulv19583.1.2 switch=n enabled=y phases=2 Linecode=1P_OH_AL_4/0_Zuzara_0_416_0_2_2_2_2

New Line.l(r:p4udt449lv-p4ulv22208) Units=km Length=0.088641 bus1=p4udt449lv.1.2 bus2=p4ulv22208.1.2 switch=n enabled=y phases=2 Linecode=1P_OH_AL_4/0_Zuzara_0_416_0_2_2_2_2

New Line.l(r:p4udm1197-p4ulv33539) Units=km Length=0.0826565 bus1=p4udm1197.1.2 bus2=p4ulv33539.1.2 switch=n enabled=y phases=2 Linecode=1P_OH_AL_4/0_Zuzara_0_416_0_2_2_2_2

New Line.l(r:p4udm1197-p4udt449lv) Units=km Length=0.016111 bus1=p4udt449lv.1.2 bus2=p4udm1197.1.2 switch=n enabled=y phases=2 Linecode=1P_OH_AL_2/0_Rucina_0_416_0_2_2_2_2

New Line.l(r:p4udt452lv-p4ulv458) Units=km Length=0.0444475 bus1=p4udt452lv.1.2 bus2=p4ulv458.1.2 switch=n enabled=y phases=2 Linecode=1P_OH_AL_4/0_Zuzara_0_416_0_2_2_2_2

New Line.l(r:p4udt453lv-p4ulv459) Units=km Length=0.0291699 bus1=p4udt453lv.1.2 bus2=p4ulv459.1.2 switch=n enabled=y phases=2 Linecode=1P_OH_AL_4/0_Zuzara_0_416_0_2_2_2_2

New Line.l(r:p4udm2285-p4ulv860) Units=km Length=0.0428348 bus1=p4udm2285.1.2 bus2=p4ulv860.1.2 switch=n enabled=y phases=2 Linecode=1P_UG_AL_1/0_Brenau_0_416_0_2_2_2_2

New Line.l(r:p4udm2285-p4udt843lv) Units=km Length=0.0193656 bus1=p4udt843lv.1.2 bus2=p4udm2285.1.2 switch=n enabled=y phases=2 Linecode=1P_UG_AL_1/0_Brenau_0_416_0_2_2_2_2

New Line.l(r:p4udm2286-p4ulv25037) Units=km Length=0.0485925 bus1=p4udm2286.1.2 bus2=p4ulv25037.1.2 switch=n enabled=y phases=2 Linecode=1P_UG_AL_1/0_Brenau_0_416_0_2_2_2_2

New Line.l(r:p4udm2286-p4udt843lv) Units=km Length=0.0193794 bus1=p4udt843lv.1.2 bus2=p4udm2286.1.2 switch=n enabled=y phases=2 Linecode=1P_UG_AL_1/0_Brenau_0_416_0_2_2_2_2

New Line.l(r:p4udt844lv-p4ulv861) Units=km Length=0.026369 bus1=p4udt844lv.1.2 bus2=p4ulv861.1.2 switch=n enabled=y phases=2 Linecode=1P_OH_AL_2/0_Rucina_0_416_0_2_2_2_2

New Line.l(r:p4udt845lv-p4ulv862) Units=km Length=0.0353176 bus1=p4udt845lv.1.2 bus2=p4ulv862.1.2 switch=n enabled=y phases=2 Linecode=1P_OH_AL_4/0_Zuzara_0_416_0_2_2_2_2

New Line.l(r:p4udt847lv-p4ulv23040) Units=km Length=0.016734600000000002 bus1=p4udt847lv.1.2 bus2=p4ulv23040.1.2 switch=n enabled=y phases=2 Linecode=1P_OH_AL_2/0_Rucina_0_416_0_2_2_2_2

New Line.l(r:p4udm2291-p4ulv864) Units=km Length=0.0160234 bus1=p4udm2291.1.2 bus2=p4ulv864.1.2 switch=n enabled=y phases=2 Linecode=1P_OH_AL_2/0_Rucina_0_416_0_2_2_2_2

New Line.l(r:p4udm2291-p4udt847lv) Units=km Length=0.0177106 bus1=p4udt847lv.1.2 bus2=p4udm2291.1.2 switch=n enabled=y phases=2 Linecode=1P_OH_AL_2/0_Rucina_0_416_0_2_2_2_2

New Line.l(r:p4udm2293-p4ulv865) Units=km Length=0.0373737 bus1=p4udm2293.1.2 bus2=p4ulv865.1.2 switch=n enabled=y phases=2 Linecode=1P_OH_AL_4/0_Zuzara_0_416_0_2_2_2_2

New Line.l(r:p4udm2293-p4udt848lv) Units=km Length=0.0187073 bus1=p4udt848lv.1.2 bus2=p4udm2293.1.2 switch=n enabled=y phases=2 Linecode=1P_OH_AL_2/0_Rucina_0_416_0_2_2_2_2

New Line.l(r:p4udm2294-p4ulv14864) Units=km Length=0.0253762 bus1=p4udm2294.1.2 bus2=p4ulv14864.1.2 switch=n enabled=y phases=2 Linecode=1P_OH_AL_2/0_Rucina_0_416_0_2_2_2_2

New Line.l(r:p4udm2294-p4udt848lv) Units=km Length=0.0197984 bus1=p4udt848lv.1.2 bus2=p4udm2294.1.2 switch=n enabled=y phases=2 Linecode=1P_OH_AL_2/0_Rucina_0_416_0_2_2_2_2

New Line.l(r:p4udt849lv-p4ulv866) Units=km Length=0.0401354 bus1=p4udt849lv.1.2 bus2=p4ulv866.1.2 switch=n enabled=y phases=2 Linecode=1P_OH_AL_4/0_Zuzara_0_416_0_2_2_2_2

New Line.l(r:p4udt851lv-p4ulv868) Units=km Length=0.055561 bus1=p4udt851lv.1.2 bus2=p4ulv868.1.2 switch=n enabled=y phases=2 Linecode=1P_OH_AL_4/0_Zuzara_0_416_0_2_2_2_2

New Line.l(r:p4udt1241lv-p4ulv20031) Units=km Length=0.0486847 bus1=p4udt1241lv.1.2 bus2=p4ulv20031.1.2 switch=n enabled=y phases=2 Linecode=1P_OH_AL_4/0_Zuzara_0_416_0_2_2_2_2

New Line.l(r:p4udm3343-p4ulv1281) Units=km Length=0.075848 bus1=p4udm3343.1.2 bus2=p4ulv1281.1.2 switch=n enabled=y phases=2 Linecode=1P_OH_AL_4/0_Zuzara_0_416_0_2_2_2_2

New Line.l(r:p4udm3343-p4udt1241lv) Units=km Length=0.0198884 bus1=p4udt1241lv.1.2 bus2=p4udm3343.1.2 switch=n enabled=y phases=2 Linecode=1P_OH_AL_2/0_Rucina_0_416_0_2_2_2_2

New Line.l(r:p4udt1242lv-p4ulv1282) Units=km Length=0.0309306 bus1=p4udt1242lv.1.2 bus2=p4ulv1282.1.2 switch=n enabled=y phases=2 Linecode=1P_OH_AL_4/0_Zuzara_0_416_0_2_2_2_2

New Line.l(r:p4udt1243lv-p4ulv1283) Units=km Length=0.0686482 bus1=p4udt1243lv.1.2 bus2=p4ulv1283.1.2 switch=n enabled=y phases=2 Linecode=1P_OH_AL_4/0_Zuzara_0_416_0_2_2_2_2

New Line.l(r:p4udm3347-p4ulv10103) Units=km Length=0.0632022 bus1=p4udm3347.1.2 bus2=p4ulv10103.1.2 switch=n enabled=y phases=2 Linecode=1P_OH_AL_4/0_Zuzara_0_416_0_2_2_2_2

New Line.l(r:p4udm3348-p4ulv18349) Units=km Length=0.0330954 bus1=p4udm3348.1.2 bus2=p4ulv18349.1.2 switch=n enabled=y phases=2 Linecode=1P_OH_AL_4/0_Zuzara_0_416_0_2_2_2_2

New Line.l(r:p4udm3347-p4udm3348) Units=km Length=0.0192642 bus1=p4udm3347.1.2 bus2=p4udm3348.1.2 switch=n enabled=y phases=2 Linecode=1P_OH_AL_2/0_Rucina_0_416_0_2_2_2_2

New Line.l(r:p4udm3347-p4udt1243lv) Units=km Length=0.0192642 bus1=p4udt1243lv.1.2 bus2=p4udm3347.1.2 switch=n enabled=y phases=2 Linecode=1P_OH_AL_2/0_Rucina_0_416_0_2_2_2_2

New Line.l(r:p4udm3349-p4ulv41109) Units=km Length=0.0486987 bus1=p4udm3349.1.2 bus2=p4ulv41109.1.2 switch=n enabled=y phases=2 Linecode=1P_OH_AL_4/0_Zuzara_0_416_0_2_2_2_2

New Line.l(r:p4udm3349-p4udt1243lv) Units=km Length=0.0192642 bus1=p4udt1243lv.1.2 bus2=p4udm3349.1.2 switch=n enabled=y phases=2 Linecode=1P_OH_AL_2/0_Rucina_0_416_0_2_2_2_2

New Line.l(r:p4udt1245lv-p4ulv1285) Units=km Length=0.0552317 bus1=p4udt1245lv.1.2 bus2=p4ulv1285.1.2 switch=n enabled=y phases=2 Linecode=1P_OH_AL_4/0_Zuzara_0_416_0_2_2_2_2

New Line.l(r:p4udm4482-p4ulv1726) Units=km Length=0.021664800000000005 bus1=p4udm4482.1.2 bus2=p4ulv1726.1.2 switch=n enabled=y phases=2 Linecode=1P_OH_AL_2/0_Rucina_0_416_0_2_2_2_2

New Line.l(r:p4udm4482-p4udt1659lv) Units=km Length=0.0191625 bus1=p4udt1659lv.1.2 bus2=p4udm4482.1.2 switch=n enabled=y phases=2 Linecode=1P_OH_AL_2/0_Rucina_0_416_0_2_2_2_2

New Line.l(r:p4udm4483-p4ulv5465) Units=km Length=0.0384872 bus1=p4udm4483.1.2 bus2=p4ulv5465.1.2 switch=n enabled=y phases=2 Linecode=1P_OH_AL_4/0_Zuzara_0_416_0_2_2_2_2

New Line.l(r:p4udm4483-p4udt1659lv) Units=km Length=0.0191625 bus1=p4udt1659lv.1.2 bus2=p4udm4483.1.2 switch=n enabled=y phases=2 Linecode=1P_OH_AL_2/0_Rucina_0_416_0_2_2_2_2

New Line.l(r:p4udt1661lv-p4ulv7554) Units=km Length=0.051173 bus1=p4udt1661lv.1.2 bus2=p4ulv7554.1.2 switch=n enabled=y phases=2 Linecode=1P_OH_AL_4/0_Zuzara_0_416_0_2_2_2_2

New Line.l(r:p4udm4486-p4ulv1728) Units=km Length=0.0488657 bus1=p4udm4486.1.2 bus2=p4ulv1728.1.2 switch=n enabled=y phases=2 Linecode=1P_OH_AL_4/0_Zuzara_0_416_0_2_2_2_2

New Line.l(r:p4udm4486-p4udt1661lv) Units=km Length=0.0143191 bus1=p4udt1661lv.1.2 bus2=p4udm4486.1.2 switch=n enabled=y phases=2 Linecode=1P_OH_AL_2/0_Rucina_0_416_0_2_2_2_2

New Line.l(r:p4udt1662lv-p4ulv1729) Units=km Length=0.052205 bus1=p4udt1662lv.1.2 bus2=p4ulv1729.1.2 switch=n enabled=y phases=2 Linecode=1P_OH_AL_4/0_Zuzara_0_416_0_2_2_2_2

New Line.l(r:p4udt1663lv-p4ulv1730) Units=km Length=0.0357338 bus1=p4udt1663lv.1.2 bus2=p4ulv1730.1.2 switch=n enabled=y phases=2 Linecode=1P_OH_AL_4/0_Zuzara_0_416_0_2_2_2_2

New Line.l(r:p4udt1663lv-p4ulv5469) Units=km Length=0.0284613 bus1=p4udt1663lv.1.2 bus2=p4ulv5469.1.2 switch=n enabled=y phases=2 Linecode=1P_OH_AL_4/0_Zuzara_0_416_0_2_2_2_2

New Line.l(r:p4udt1663lv-p4ulv10534) Units=km Length=0.0384921 bus1=p4udt1663lv.1.2 bus2=p4ulv10534.1.2 switch=n enabled=y phases=2 Linecode=1P_OH_AL_4/0_Zuzara_0_416_0_2_2_2_2

New Line.l(r:p4udt1664lv-p4ulv1731) Units=km Length=0.0738497 bus1=p4udt1664lv.1.2 bus2=p4ulv1731.1.2 switch=n enabled=y phases=2 Linecode=1P_OH_AL_4/0_Zuzara_0_416_0_2_2_2_2

New Line.l(r:p4udm4493-p4ulv35245) Units=km Length=0.109239 bus1=p4udm4493.1.2 bus2=p4ulv35245.1.2 switch=n enabled=y phases=2 Linecode=1P_OH_AL_4/0_Zuzara_0_416_0_2_2_2_2

New Line.l(r:p4udm4493-p4udt1664lv) Units=km Length=0.019917200000000003 bus1=p4udt1664lv.1.2 bus2=p4udm4493.1.2 switch=n enabled=y phases=2 Linecode=1P_OH_AL_2/0_Rucina_0_416_0_2_2_2_2

New Line.l(r:p4udt2021lv-p4ulv2115) Units=km Length=0.04930260000000001 bus1=p4udt2021lv.1.2 bus2=p4ulv2115.1.2 switch=n enabled=y phases=2 Linecode=1P_OH_AL_4/0_Zuzara_0_416_0_2_2_2_2

New Line.l(r:p4udt2021lv-p4ulv20923) Units=km Length=0.0593547 bus1=p4udt2021lv.1.2 bus2=p4ulv20923.1.2 switch=n enabled=y phases=2 Linecode=1P_OH_AL_4/0_Zuzara_0_416_0_2_2_2_2

New Line.l(r:p4udm5425-p4ulv29766) Units=km Length=0.0182048 bus1=p4udm5425.1.2 bus2=p4ulv29766.1.2 switch=n enabled=y phases=2 Linecode=1P_OH_AL_2/0_Rucina_0_416_0_2_2_2_2

New Line.l(r:p4udm5425-p4udt2021lv) Units=km Length=0.0358395 bus1=p4udt2021lv.1.2 bus2=p4udm5425.1.2 switch=n enabled=y phases=2 Linecode=1P_OH_AL_4/0_Zuzara_0_416_0_2_2_2_2

New Line.l(r:p4udt2022lv-p4ulv2116) Units=km Length=0.052479500000000005 bus1=p4udt2022lv.1.2 bus2=p4ulv2116.1.2 switch=n enabled=y phases=2 Linecode=1P_OH_AL_4/0_Zuzara_0_416_0_2_2_2_2

New Line.l(r:p4udt2023lv-p4ulv2117) Units=km Length=0.036858 bus1=p4udt2023lv.1.2 bus2=p4ulv2117.1.2 switch=n enabled=y phases=2 Linecode=1P_OH_AL_4/0_Zuzara_0_416_0_2_2_2_2

New Line.l(r:p4udt2023lv-p4ulv19580) Units=km Length=0.02206 bus1=p4udt2023lv.1.2 bus2=p4ulv19580.1.2 switch=n enabled=y phases=2 Linecode=1P_OH_AL_2/0_Rucina_0_416_0_2_2_2_2

New Line.l(r:p4udt2023lv-p4ulv32689) Units=km Length=0.0245629 bus1=p4udt2023lv.1.2 bus2=p4ulv32689.1.2 switch=n enabled=y phases=2 Linecode=1P_OH_AL_2/0_Rucina_0_416_0_2_2_2_2

New Line.l(r:p4udt2025lv-p4ulv2119) Units=km Length=0.0275086 bus1=p4udt2025lv.1.2 bus2=p4ulv2119.1.2 switch=n enabled=y phases=2 Linecode=1P_OH_AL_4/0_Zuzara_0_416_0_2_2_2_2

New Line.l(r:p4udm5432-p4ulv25039) Units=km Length=0.0182295 bus1=p4udm5432.1.2 bus2=p4ulv25039.1.2 switch=n enabled=y phases=2 Linecode=1P_OH_AL_2/0_Rucina_0_416_0_2_2_2_2

New Line.l(r:p4udm5432-p4udt2025lv) Units=km Length=0.0135755 bus1=p4udt2025lv.1.2 bus2=p4udm5432.1.2 switch=n enabled=y phases=2 Linecode=1P_OH_AL_2/0_Rucina_0_416_0_2_2_2_2

New Line.l(r:p4udt2026lv-p4ulv2120) Units=km Length=0.0650862 bus1=p4udt2026lv.1.2 bus2=p4ulv2120.1.2 switch=n enabled=y phases=2 Linecode=1P_OH_AL_4/0_Zuzara_0_416_0_2_2_2_2

New Line.l(r:p4udt2026lv-p4ulv20033) Units=km Length=0.0806974 bus1=p4udt2026lv.1.2 bus2=p4ulv20033.1.2 switch=n enabled=y phases=2 Linecode=1P_OH_AL_4/0_Zuzara_0_416_0_2_2_2_2

New Line.l(r:p4udm5435-p4ulv2121) Units=km Length=0.04981010000000001 bus1=p4udm5435.1.2 bus2=p4ulv2121.1.2 switch=n enabled=y phases=2 Linecode=1P_OH_AL_4/0_Zuzara_0_416_0_2_2_2_2

New Line.l(r:p4udm5435-p4udt2027lv) Units=km Length=0.0188094 bus1=p4udt2027lv.1.2 bus2=p4udm5435.1.2 switch=n enabled=y phases=2 Linecode=1P_OH_AL_2/0_Rucina_0_416_0_2_2_2_2

New Line.l(r:p4udm5436-p4ulv26771) Units=km Length=0.0323684 bus1=p4udm5436.1.2 bus2=p4ulv26771.1.2 switch=n enabled=y phases=2 Linecode=1P_OH_AL_4/0_Zuzara_0_416_0_2_2_2_2

New Line.l(r:p4udm5436-p4udt2027lv) Units=km Length=0.0188094 bus1=p4udt2027lv.1.2 bus2=p4udm5436.1.2 switch=n enabled=y phases=2 Linecode=1P_OH_AL_2/0_Rucina_0_416_0_2_2_2_2

New Line.l(r:p4udm6356-p4ulv2502) Units=km Length=0.0291916 bus1=p4udm6356.1.2 bus2=p4ulv2502.1.2 switch=n enabled=y phases=2 Linecode=1P_UG_AL_1/0_Brenau_0_416_0_2_2_2_2

New Line.l(r:p4udm6356-p4udt2380lv) Units=km Length=0.00979065 bus1=p4udt2380lv.1.2 bus2=p4udm6356.1.2 switch=n enabled=y phases=2 Linecode=1P_UG_AL_1/0_Brenau_0_416_0_2_2_2_2

New Line.l(r:p4udm6357-p4ulv21335) Units=km Length=0.0291247 bus1=p4udm6357.1.2 bus2=p4ulv21335.1.2 switch=n enabled=y phases=2 Linecode=1P_UG_AL_1/0_Brenau_0_416_0_2_2_2_2

New Line.l(r:p4udm6357-p4udt2380lv) Units=km Length=0.0098045 bus1=p4udt2380lv.1.2 bus2=p4udm6357.1.2 switch=n enabled=y phases=2 Linecode=1P_UG_AL_1/0_Brenau_0_416_0_2_2_2_2

New Line.l(r:p4udm6358-p4ulv2503) Units=km Length=0.0377317 bus1=p4udm6358.1.2 bus2=p4ulv2503.1.2 switch=n enabled=y phases=2 Linecode=1P_UG_AL_1/0_Brenau_0_416_0_2_2_2_2

New Line.l(r:p4udm6358-p4udt2381lv) Units=km Length=0.0191543 bus1=p4udt2381lv.1.2 bus2=p4udm6358.1.2 switch=n enabled=y phases=2 Linecode=1P_UG_AL_1/0_Brenau_0_416_0_2_2_2_2

New Line.l(r:p4udm6359-p4ulv27642) Units=km Length=0.0364615 bus1=p4udm6359.1.2 bus2=p4ulv27642.1.2 switch=n enabled=y phases=2 Linecode=1P_UG_AL_1/0_Brenau_0_416_0_2_2_2_2

New Line.l(r:p4udm6359-p4udt2381lv) Units=km Length=0.0191455 bus1=p4udt2381lv.1.2 bus2=p4udm6359.1.2 switch=n enabled=y phases=2 Linecode=1P_UG_AL_1/0_Brenau_0_416_0_2_2_2_2

New Line.l(r:p4udm6360-p4ulv2504) Units=km Length=0.0199411 bus1=p4udm6360.1.2 bus2=p4ulv2504.1.2 switch=n enabled=y phases=2 Linecode=1P_OH_AL_2/0_Rucina_0_416_0_2_2_2_2

New Line.l(r:p4udm6360-p4udt2382lv) Units=km Length=0.020257 bus1=p4udt2382lv.1.2 bus2=p4udm6360.1.2 switch=n enabled=y phases=2 Linecode=1P_OH_AL_2/0_Rucina_0_416_0_2_2_2_2

New Line.l(r:p4udm6361-p4ulv37339) Units=km Length=0.0628919 bus1=p4udm6361.1.2 bus2=p4ulv37339.1.2 switch=n enabled=y phases=2 Linecode=1P_OH_AL_4/0_Zuzara_0_416_0_2_2_2_2

New Line.l(r:p4udm6361-p4udt2382lv) Units=km Length=0.013775300000000002 bus1=p4udt2382lv.1.2 bus2=p4udm6361.1.2 switch=n enabled=y phases=2 Linecode=1P_OH_AL_2/0_Rucina_0_416_0_2_2_2_2

New Line.l(r:p4udt2383lv-p4ulv2505) Units=km Length=0.06097190000000001 bus1=p4udt2383lv.1.2 bus2=p4ulv2505.1.2 switch=n enabled=y phases=2 Linecode=1P_OH_AL_4/0_Zuzara_0_416_0_2_2_2_2

New Line.l(r:p4udt2384lv-p4ulv31468) Units=km Length=0.0561422 bus1=p4udt2384lv.1.2 bus2=p4ulv31468.1.2 switch=n enabled=y phases=2 Linecode=1P_OH_AL_4/0_Zuzara_0_416_0_2_2_2_2

New Line.l(r:p4udm6363-p4ulv2507) Units=km Length=0.072483 bus1=p4udm6363.1.2 bus2=p4ulv2507.1.2 switch=n enabled=y phases=2 Linecode=1P_OH_AL_4/0_Zuzara_0_416_0_2_2_2_2

New Line.l(r:p4udm6363-p4udt2384lv) Units=km Length=0.0173049 bus1=p4udt2384lv.1.2 bus2=p4udm6363.1.2 switch=n enabled=y phases=2 Linecode=1P_OH_AL_2/0_Rucina_0_416_0_2_2_2_2

New Line.l(r:p4udt2385lv-p4ulv2508) Units=km Length=0.0552962 bus1=p4udt2385lv.1.2 bus2=p4ulv2508.1.2 switch=n enabled=y phases=2 Linecode=1P_OH_AL_4/0_Zuzara_0_416_0_2_2_2_2

New Line.l(r:p4udt2387lv-p4ulv16626) Units=km Length=0.0391961 bus1=p4udt2387lv.1.2 bus2=p4ulv16626.1.2 switch=n enabled=y phases=2 Linecode=1P_OH_AL_4/0_Zuzara_0_416_0_2_2_2_2

New Line.l(r:p4udm6369-p4ulv2511) Units=km Length=0.0373682 bus1=p4udm6369.1.2 bus2=p4ulv2511.1.2 switch=n enabled=y phases=2 Linecode=1P_OH_AL_4/0_Zuzara_0_416_0_2_2_2_2

New Line.l(r:p4udm6369-p4udt2387lv) Units=km Length=0.0197143 bus1=p4udt2387lv.1.2 bus2=p4udm6369.1.2 switch=n enabled=y phases=2 Linecode=1P_OH_AL_2/0_Rucina_0_416_0_2_2_2_2

New Line.l(r:p4udm6371-p4ulv31473) Units=km Length=0.0567749 bus1=p4udm6371.1.2 bus2=p4ulv31473.1.2 switch=n enabled=y phases=2 Linecode=1P_OH_AL_4/0_Zuzara_0_416_0_2_2_2_2

New Line.l(r:p4udm6368-p4ulv2510) Units=km Length=0.0394339 bus1=p4udm6368.1.2 bus2=p4ulv2510.1.2 switch=n enabled=y phases=2 Linecode=1P_OH_AL_4/0_Zuzara_0_416_0_2_2_2_2

New Line.l(r:p4udm6368-p4udm6371) Units=km Length=0.0197143 bus1=p4udm6371.1.2 bus2=p4udm6368.1.2 switch=n enabled=y phases=2 Linecode=1P_OH_AL_2/0_Rucina_0_416_0_2_2_2_2

New Line.l(r:p4udm6371-p4udt2387lv) Units=km Length=0.019715400000000004 bus1=p4udt2387lv.1.2 bus2=p4udm6371.1.2 switch=n enabled=y phases=2 Linecode=1P_OH_AL_2/0_Rucina_0_416_0_2_2_2_2

New Line.l(r:p4udt2388lv-p4ulv2512) Units=km Length=0.0384698 bus1=p4udt2388lv.1.2 bus2=p4ulv2512.1.2 switch=n enabled=y phases=2 Linecode=1P_OH_AL_4/0_Zuzara_0_416_0_2_2_2_2

New Line.l(r:p4udt2782lv-p4ulv13568) Units=km Length=0.0423038 bus1=p4udt2782lv.1.2 bus2=p4ulv13568.1.2 switch=n enabled=y phases=2 Linecode=1P_UG_AL_1/0_Brenau_0_416_0_2_2_2_2

New Line.l(r:p4udt2782lv-p4ulv39407) Units=km Length=0.0359617 bus1=p4udt2782lv.1.2 bus2=p4ulv39407.1.2 switch=n enabled=y phases=2 Linecode=1P_UG_AL_1/0_Brenau_0_416_0_2_2_2_2

New Line.l(r:p4udm7400-p4ulv23420) Units=km Length=0.06597220000000001 bus1=p4udm7400.1.2 bus2=p4ulv23420.1.2 switch=n enabled=y phases=2 Linecode=1P_UG_AL_1/0_Brenau_0_416_0_2_2_2_2

New Line.l(r:p4udm7398-p4ulv2959) Units=km Length=0.0395253 bus1=p4udm7398.1.2 bus2=p4ulv2959.1.2 switch=n enabled=y phases=2 Linecode=1P_UG_AL_1/0_Brenau_0_416_0_2_2_2_2

New Line.l(r:p4udm7398-p4udm7400) Units=km Length=0.00822074 bus1=p4udm7400.1.2 bus2=p4udm7398.1.2 switch=n enabled=y phases=2 Linecode=1P_UG_AL_1/0_Brenau_0_416_0_2_2_2_2

New Line.l(r:p4udm7400-p4udt2782lv) Units=km Length=0.0164363 bus1=p4udt2782lv.1.2 bus2=p4udm7400.1.2 switch=n enabled=y phases=2 Linecode=1P_UG_AL_4/0_Sweetbriar_0_416_0_2_2_2_2

New Line.l(r:p4udt2783lv-p4ulv2960) Units=km Length=0.0855352 bus1=p4udt2783lv.1.2 bus2=p4ulv2960.1.2 switch=n enabled=y phases=2 Linecode=1P_OH_AL_4/0_Zuzara_0_416_0_2_2_2_2

New Line.l(r:p4udt2783lv-p4ulv36905) Units=km Length=0.0538316 bus1=p4udt2783lv.1.2 bus2=p4ulv36905.1.2 switch=n enabled=y phases=2 Linecode=1P_OH_AL_4/0_Zuzara_0_416_0_2_2_2_2

New Line.l(r:p4udt2784lv-p4ulv2961) Units=km Length=0.001 bus1=p4udt2784lv.1.2 bus2=p4ulv2961.1.2 switch=n enabled=y phases=2 Linecode=1P_OH_AL_4_Periwinkle_0_416_0_2_2_2_2

New Line.l(r:p4udt2785lv-p4ulv2962) Units=km Length=0.001 bus1=p4udt2785lv.1.2 bus2=p4ulv2962.1.2 switch=n enabled=y phases=2 Linecode=1P_OH_AL_4_Periwinkle_0_416_0_2_2_2_2

New Line.l(r:p4udt2786lv-p4ulv2963) Units=km Length=0.0457152 bus1=p4udt2786lv.1.2 bus2=p4ulv2963.1.2 switch=n enabled=y phases=2 Linecode=1P_OH_AL_4/0_Zuzara_0_416_0_2_2_2_2

New Line.l(r:p4udt2787lv-p4ulv2964) Units=km Length=0.0753794 bus1=p4udt2787lv.1.2 bus2=p4ulv2964.1.2 switch=n enabled=y phases=2 Linecode=1P_OH_AL_4/0_Zuzara_0_416_0_2_2_2_2

New Line.l(r:p4udm8381-p4ulv3366) Units=km Length=0.0359076 bus1=p4udm8381.1.2 bus2=p4ulv3366.1.2 switch=n enabled=y phases=2 Linecode=1P_UG_AL_1/0_Brenau_0_416_0_2_2_2_2

New Line.l(r:p4udm8381-p4udt3156lv) Units=km Length=0.00943917 bus1=p4udt3156lv.1.2 bus2=p4udm8381.1.2 switch=n enabled=y phases=2 Linecode=1P_UG_AL_1/0_Brenau_0_416_0_2_2_2_2

New Line.l(r:p4udm8382-p4ulv19578) Units=km Length=0.038699700000000004 bus1=p4udm8382.1.2 bus2=p4ulv19578.1.2 switch=n enabled=y phases=2 Linecode=1P_UG_AL_1/0_Brenau_0_416_0_2_2_2_2
