New Transformer.sb9_p1uhs10_1247_trans_264 phases=3 windings=2 wdg=1 conn=delta Kv=69.0 kva=22400.0 %R=0.370153834758116 bus=sb9_p1uhs10_1247_node_9_16 wdg=2 conn=wye Kv=12.47 kva=22400.0 %R=0.370153834758116 bus=sb9_p1uhs10_1247_node_9_18 XHL=7.40307669516232

New Transformer.sb9_p1uhs10_1247_trans_263 phases=3 windings=2 wdg=1 conn=delta Kv=69.0 kva=22400.0 %R=0.370153834758116 bus=sb9_p1uhs10_1247_node_9_14 wdg=2 conn=wye Kv=12.47 kva=22400.0 %R=0.370153834758116 bus=sb9_p1uhs10_1247_node_9_17 XHL=7.40307669516232

