New Line.l(r:p1rdt19lv-p1rlv20) Units=km Length=0.0396576 bus1=p1rdt19lv.1.2 bus2=p1rlv20.1.2 switch=n enabled=y phases=2 Linecode=1P_OH_AL_4/0_Zuzara_0_416_0_2_2_2_2_2_2_2_2_2_2_2_2_2_2_2_2_2_2_2_2_2_2_2_2_2_2_2_2_2

New Line.l(r:p1rdt19lv-p1rlv6071) Units=km Length=0.033156700000000004 bus1=p1rdt19lv.1.2 bus2=p1rlv6071.1.2 switch=n enabled=y phases=2 Linecode=1P_OH_AL_4/0_Zuzara_0_416_0_2_2_2_2_2_2_2_2_2_2_2_2_2_2_2_2_2_2_2_2_2_2_2_2_2_2_2_2_2

New Line.l(r:p1rdt19lv-p1rlv8828) Units=km Length=0.0111848 bus1=p1rdt19lv.1.2 bus2=p1rlv8828.1.2 switch=n enabled=y phases=2 Linecode=1P_OH_AL_2/0_Rucina_0_416_0_2_2_2_2_2_2_2_2_2_2_2_2_2_2_2_2_2_2_2_2_2_2_2_2_2_2_2_2_2

New Line.l(r:p1rdt19lv-p1rlv12509) Units=km Length=0.0780425 bus1=p1rdt19lv.1.2 bus2=p1rlv12509.1.2 switch=n enabled=y phases=2 Linecode=1P_OH_AL_4/0_Zuzara_0_416_0_2_2_2_2_2_2_2_2_2_2_2_2_2_2_2_2_2_2_2_2_2_2_2_2_2_2_2_2_2

New Line.l(r:p1rdt21lv-p1rlv22) Units=km Length=0.0968107 bus1=p1rdt21lv.1.2 bus2=p1rlv22.1.2 switch=n enabled=y phases=2 Linecode=1P_OH_AL_4/0_Zuzara_0_416_0_2_2_2_2_2_2_2_2_2_2_2_2_2_2_2_2_2_2_2_2_2_2_2_2_2_2_2_2_2

New Line.l(r:p1rdm41-p1rlv13016) Units=km Length=0.0831226 bus1=p1rdm41.1.2 bus2=p1rlv13016.1.2 switch=n enabled=y phases=2 Linecode=1P_OH_AL_4/0_Zuzara_0_416_0_2_2_2_2_2_2_2_2_2_2_2_2_2_2_2_2_2_2_2_2_2_2_2_2_2_2_2_2_2

New Line.l(r:p1rdm41-p1rdt21lv) Units=km Length=0.016765800000000004 bus1=p1rdt21lv.1.2 bus2=p1rdm41.1.2 switch=n enabled=y phases=2 Linecode=1P_OH_AL_2/0_Rucina_0_416_0_2_2_2_2_2_2_2_2_2_2_2_2_2_2_2_2_2_2_2_2_2_2_2_2_2_2_2_2_2

New Line.l(r:p1rdm42-p1rlv23) Units=km Length=0.0852413 bus1=p1rdm42.1.2 bus2=p1rlv23.1.2 switch=n enabled=y phases=2 Linecode=1P_OH_AL_4/0_Zuzara_0_416_0_2_2_2_2_2_2_2_2_2_2_2_2_2_2_2_2_2_2_2_2_2_2_2_2_2_2_2_2_2

New Line.l(r:p1rdm42-p1rdt22lv) Units=km Length=0.0190438 bus1=p1rdt22lv.1.2 bus2=p1rdm42.1.2 switch=n enabled=y phases=2 Linecode=1P_OH_AL_2/0_Rucina_0_416_0_2_2_2_2_2_2_2_2_2_2_2_2_2_2_2_2_2_2_2_2_2_2_2_2_2_2_2_2_2

New Line.l(r:p1rdm43-p1rlv1753) Units=km Length=0.0984047 bus1=p1rdm43.1.2 bus2=p1rlv1753.1.2 switch=n enabled=y phases=2 Linecode=1P_OH_AL_4/0_Zuzara_0_416_0_2_2_2_2_2_2_2_2_2_2_2_2_2_2_2_2_2_2_2_2_2_2_2_2_2_2_2_2_2

New Line.l(r:p1rdm43-p1rdt22lv) Units=km Length=0.01903 bus1=p1rdt22lv.1.2 bus2=p1rdm43.1.2 switch=n enabled=y phases=2 Linecode=1P_OH_AL_2/0_Rucina_0_416_0_2_2_2_2_2_2_2_2_2_2_2_2_2_2_2_2_2_2_2_2_2_2_2_2_2_2_2_2_2

New Line.l(r:p1rdt137lv-p1rlv141) Units=km Length=0.0495462 bus1=p1rdt137lv.1.2 bus2=p1rlv141.1.2 switch=n enabled=y phases=2 Linecode=1P_OH_AL_4/0_Zuzara_0_416_0_2_2_2_2_2_2_2_2_2_2_2_2_2_2_2_2_2_2_2_2_2_2_2_2_2_2_2_2_2

New Line.l(r:p1rdt137lv-p1rlv1356) Units=km Length=0.038002 bus1=p1rdt137lv.1.2 bus2=p1rlv1356.1.2 switch=n enabled=y phases=2 Linecode=1P_OH_AL_4/0_Zuzara_0_416_0_2_2_2_2_2_2_2_2_2_2_2_2_2_2_2_2_2_2_2_2_2_2_2_2_2_2_2_2_2

New Line.l(r:p1rdt137lv-p1rlv4162) Units=km Length=0.0659558 bus1=p1rdt137lv.1.2 bus2=p1rlv4162.1.2 switch=n enabled=y phases=2 Linecode=1P_OH_AL_4/0_Zuzara_0_416_0_2_2_2_2_2_2_2_2_2_2_2_2_2_2_2_2_2_2_2_2_2_2_2_2_2_2_2_2_2

New Line.l(r:p1rdt137lv-p1rlv4300) Units=km Length=0.069363 bus1=p1rdt137lv.1.2 bus2=p1rlv4300.1.2 switch=n enabled=y phases=2 Linecode=1P_OH_AL_4/0_Zuzara_0_416_0_2_2_2_2_2_2_2_2_2_2_2_2_2_2_2_2_2_2_2_2_2_2_2_2_2_2_2_2_2

New Line.l(r:p1rdt137lv-p1rlv5262) Units=km Length=0.0369666 bus1=p1rdt137lv.1.2 bus2=p1rlv5262.1.2 switch=n enabled=y phases=2 Linecode=1P_OH_AL_4/0_Zuzara_0_416_0_2_2_2_2_2_2_2_2_2_2_2_2_2_2_2_2_2_2_2_2_2_2_2_2_2_2_2_2_2

New Line.l(r:p1rdt137lv-p1rlv5676) Units=km Length=0.013653 bus1=p1rdt137lv.1.2 bus2=p1rlv5676.1.2 switch=n enabled=y phases=2 Linecode=1P_OH_AL_2/0_Rucina_0_416_0_2_2_2_2_2_2_2_2_2_2_2_2_2_2_2_2_2_2_2_2_2_2_2_2_2_2_2_2_2

New Line.l(r:p1rdt137lv-p1rlv9752) Units=km Length=0.025122000000000002 bus1=p1rdt137lv.1.2 bus2=p1rlv9752.1.2 switch=n enabled=y phases=2 Linecode=1P_OH_AL_2/0_Rucina_0_416_0_2_2_2_2_2_2_2_2_2_2_2_2_2_2_2_2_2_2_2_2_2_2_2_2_2_2_2_2_2

New Line.l(r:p1rdt137lv-p1rlv13408) Units=km Length=0.044013500000000004 bus1=p1rdt137lv.1.2 bus2=p1rlv13408.1.2 switch=n enabled=y phases=2 Linecode=1P_OH_AL_4/0_Zuzara_0_416_0_2_2_2_2_2_2_2_2_2_2_2_2_2_2_2_2_2_2_2_2_2_2_2_2_2_2_2_2_2

New Line.l(r:p1rdt138lv-p1rlv142) Units=km Length=0.00997214 bus1=p1rdt138lv.1.2 bus2=p1rlv142.1.2 switch=n enabled=y phases=2 Linecode=1P_OH_AL_2/0_Rucina_0_416_0_2_2_2_2_2_2_2_2_2_2_2_2_2_2_2_2_2_2_2_2_2_2_2_2_2_2_2_2_2

New Line.l(r:p1rdt138lv-p1rlv8164) Units=km Length=0.00997214 bus1=p1rdt138lv.1.2 bus2=p1rlv8164.1.2 switch=n enabled=y phases=2 Linecode=1P_OH_AL_2/0_Rucina_0_416_0_2_2_2_2_2_2_2_2_2_2_2_2_2_2_2_2_2_2_2_2_2_2_2_2_2_2_2_2_2

New Line.l(r:p1rdt139lv-p1rlv143) Units=km Length=0.0349349 bus1=p1rdt139lv.1.2 bus2=p1rlv143.1.2 switch=n enabled=y phases=2 Linecode=1P_OH_AL_4/0_Zuzara_0_416_0_2_2_2_2_2_2_2_2_2_2_2_2_2_2_2_2_2_2_2_2_2_2_2_2_2_2_2_2_2

New Line.l(r:p1rdt139lv-p1rlv3101) Units=km Length=0.0723503 bus1=p1rdt139lv.1.2 bus2=p1rlv3101.1.2 switch=n enabled=y phases=2 Linecode=1P_OH_AL_4/0_Zuzara_0_416_0_2_2_2_2_2_2_2_2_2_2_2_2_2_2_2_2_2_2_2_2_2_2_2_2_2_2_2_2_2

New Line.l(r:p1rdt139lv-p1rlv3349) Units=km Length=0.00997928 bus1=p1rdt139lv.1.2 bus2=p1rlv3349.1.2 switch=n enabled=y phases=2 Linecode=1P_OH_AL_2/0_Rucina_0_416_0_2_2_2_2_2_2_2_2_2_2_2_2_2_2_2_2_2_2_2_2_2_2_2_2_2_2_2_2_2

New Line.l(r:p1rdt139lv-p1rlv11960) Units=km Length=0.0539436 bus1=p1rdt139lv.1.2 bus2=p1rlv11960.1.2 switch=n enabled=y phases=2 Linecode=1P_OH_AL_4/0_Zuzara_0_416_0_2_2_2_2_2_2_2_2_2_2_2_2_2_2_2_2_2_2_2_2_2_2_2_2_2_2_2_2_2

New Line.l(r:p1rdt140lv-p1rlv144) Units=km Length=0.0198302 bus1=p1rdt140lv.1.2 bus2=p1rlv144.1.2 switch=n enabled=y phases=2 Linecode=1P_OH_AL_2/0_Rucina_0_416_0_2_2_2_2_2_2_2_2_2_2_2_2_2_2_2_2_2_2_2_2_2_2_2_2_2_2_2_2_2

New Line.l(r:p1rdt140lv-p1rlv12902) Units=km Length=0.0198302 bus1=p1rdt140lv.1.2 bus2=p1rlv12902.1.2 switch=n enabled=y phases=2 Linecode=1P_OH_AL_2/0_Rucina_0_416_0_2_2_2_2_2_2_2_2_2_2_2_2_2_2_2_2_2_2_2_2_2_2_2_2_2_2_2_2_2

New Line.l(r:p1rdt141lv-p1rlv145) Units=km Length=0.0495486 bus1=p1rdt141lv.1.2 bus2=p1rlv145.1.2 switch=n enabled=y phases=2 Linecode=1P_OH_AL_4/0_Zuzara_0_416_0_2_2_2_2_2_2_2_2_2_2_2_2_2_2_2_2_2_2_2_2_2_2_2_2_2_2_2_2_2

New Line.l(r:p1rdt142lv-p1rlv146) Units=km Length=0.0649404 bus1=p1rdt142lv.1.2 bus2=p1rlv146.1.2 switch=n enabled=y phases=2 Linecode=1P_OH_AL_4/0_Zuzara_0_416_0_2_2_2_2_2_2_2_2_2_2_2_2_2_2_2_2_2_2_2_2_2_2_2_2_2_2_2_2_2

New Line.l(r:p1rdt279lv-p1rlv287) Units=km Length=0.0401461 bus1=p1rdt279lv.1.2 bus2=p1rlv287.1.2 switch=n enabled=y phases=2 Linecode=1P_OH_AL_4/0_Zuzara_0_416_0_2_2_2_2_2_2_2_2_2_2_2_2_2_2_2_2_2_2_2_2_2_2_2_2_2_2_2_2_2

New Line.l(r:p1rdt279lv-p1rlv10428) Units=km Length=0.0148233 bus1=p1rdt279lv.1.2 bus2=p1rlv10428.1.2 switch=n enabled=y phases=2 Linecode=1P_OH_AL_2/0_Rucina_0_416_0_2_2_2_2_2_2_2_2_2_2_2_2_2_2_2_2_2_2_2_2_2_2_2_2_2_2_2_2_2

New Line.l(r:p1rdt279lv-p1rlv11399) Units=km Length=0.0531782 bus1=p1rdt279lv.1.2 bus2=p1rlv11399.1.2 switch=n enabled=y phases=2 Linecode=1P_OH_AL_4/0_Zuzara_0_416_0_2_2_2_2_2_2_2_2_2_2_2_2_2_2_2_2_2_2_2_2_2_2_2_2_2_2_2_2_2

New Line.l(r:p1rdm662-p1rlv288) Units=km Length=0.0704742 bus1=p1rdm662.1.2 bus2=p1rlv288.1.2 switch=n enabled=y phases=2 Linecode=1P_OH_AL_4/0_Zuzara_0_416_0_2_2_2_2_2_2_2_2_2_2_2_2_2_2_2_2_2_2_2_2_2_2_2_2_2_2_2_2_2

New Line.l(r:p1rdm662-p1rdt280lv) Units=km Length=0.0192235 bus1=p1rdt280lv.1.2 bus2=p1rdm662.1.2 switch=n enabled=y phases=2 Linecode=1P_OH_AL_2/0_Rucina_0_416_0_2_2_2_2_2_2_2_2_2_2_2_2_2_2_2_2_2_2_2_2_2_2_2_2_2_2_2_2_2

New Line.l(r:p1rdm663-p1rlv2577) Units=km Length=0.07041260000000002 bus1=p1rdm663.1.2 bus2=p1rlv2577.1.2 switch=n enabled=y phases=2 Linecode=1P_OH_AL_4/0_Zuzara_0_416_0_2_2_2_2_2_2_2_2_2_2_2_2_2_2_2_2_2_2_2_2_2_2_2_2_2_2_2_2_2

New Line.l(r:p1rdm663-p1rdt280lv) Units=km Length=0.0192222 bus1=p1rdt280lv.1.2 bus2=p1rdm663.1.2 switch=n enabled=y phases=2 Linecode=1P_OH_AL_2/0_Rucina_0_416_0_2_2_2_2_2_2_2_2_2_2_2_2_2_2_2_2_2_2_2_2_2_2_2_2_2_2_2_2_2

New Line.l(r:p1rdt402lv-p1rlv411) Units=km Length=0.001 bus1=p1rdt402lv.1.2 bus2=p1rlv411.1.2 switch=n enabled=y phases=2 Linecode=1P_OH_AL_4_Periwinkle_0_416_0_2_2_2_2_2_2_2_2_2_2_2_2_2_2_2_2_2_2_2_2_2_2_2_2_2_2_2_2_2

New Line.l(r:p1rdt403lv-p1rlv412) Units=km Length=0.001 bus1=p1rdt403lv.1.2 bus2=p1rlv412.1.2 switch=n enabled=y phases=2 Linecode=1P_OH_AL_4_Periwinkle_0_416_0_2_2_2_2_2_2_2_2_2_2_2_2_2_2_2_2_2_2_2_2_2_2_2_2_2_2_2_2_2

New Line.l(r:p1rdt404lv-p1rlv413) Units=km Length=0.025049100000000005 bus1=p1rdt404lv.1.2 bus2=p1rlv413.1.2 switch=n enabled=y phases=2 Linecode=1P_OH_AL_2/0_Rucina_0_416_0_2_2_2_2_2_2_2_2_2_2_2_2_2_2_2_2_2_2_2_2_2_2_2_2_2_2_2_2_2

New Line.l(r:p1rdt404lv-p1rlv1504) Units=km Length=0.0677586 bus1=p1rdt404lv.1.2 bus2=p1rlv1504.1.2 switch=n enabled=y phases=2 Linecode=1P_OH_AL_4/0_Zuzara_0_416_0_2_2_2_2_2_2_2_2_2_2_2_2_2_2_2_2_2_2_2_2_2_2_2_2_2_2_2_2_2

New Line.l(r:p1rdt404lv-p1rlv2451) Units=km Length=0.0594061 bus1=p1rdt404lv.1.2 bus2=p1rlv2451.1.2 switch=n enabled=y phases=2 Linecode=1P_OH_AL_4/0_Zuzara_0_416_0_2_2_2_2_2_2_2_2_2_2_2_2_2_2_2_2_2_2_2_2_2_2_2_2_2_2_2_2_2

New Line.l(r:p1rdt404lv-p1rlv10710) Units=km Length=0.0419329 bus1=p1rdt404lv.1.2 bus2=p1rlv10710.1.2 switch=n enabled=y phases=2 Linecode=1P_OH_AL_4/0_Zuzara_0_416_0_2_2_2_2_2_2_2_2_2_2_2_2_2_2_2_2_2_2_2_2_2_2_2_2_2_2_2_2_2

New Line.l(r:p1rdt404lv-p1rlv11143) Units=km Length=0.0694774 bus1=p1rdt404lv.1.2 bus2=p1rlv11143.1.2 switch=n enabled=y phases=2 Linecode=1P_OH_AL_4/0_Zuzara_0_416_0_2_2_2_2_2_2_2_2_2_2_2_2_2_2_2_2_2_2_2_2_2_2_2_2_2_2_2_2_2

New Line.l(r:p1rdt526lv-p1rlv539) Units=km Length=0.0487056 bus1=p1rdt526lv.1.2 bus2=p1rlv539.1.2 switch=n enabled=y phases=2 Linecode=1P_OH_AL_4/0_Zuzara_0_416_0_2_2_2_2_2_2_2_2_2_2_2_2_2_2_2_2_2_2_2_2_2_2_2_2_2_2_2_2_2

New Line.l(r:p1rdt527lv-p1rlv540) Units=km Length=0.001 bus1=p1rdt527lv.1.2 bus2=p1rlv540.1.2 switch=n enabled=y phases=2 Linecode=1P_OH_AL_4_Periwinkle_0_416_0_2_2_2_2_2_2_2_2_2_2_2_2_2_2_2_2_2_2_2_2_2_2_2_2_2_2_2_2_2

New Line.l(r:p1rdt528lv-p1rlv541) Units=km Length=0.00753995 bus1=p1rdt528lv.1.2 bus2=p1rlv541.1.2 switch=n enabled=y phases=2 Linecode=1P_OH_AL_2/0_Rucina_0_416_0_2_2_2_2_2_2_2_2_2_2_2_2_2_2_2_2_2_2_2_2_2_2_2_2_2_2_2_2_2

New Line.l(r:p1rdt528lv-p1rlv682) Units=km Length=0.0318701 bus1=p1rdt528lv.1.2 bus2=p1rlv682.1.2 switch=n enabled=y phases=2 Linecode=1P_OH_AL_4/0_Zuzara_0_416_0_2_2_2_2_2_2_2_2_2_2_2_2_2_2_2_2_2_2_2_2_2_2_2_2_2_2_2_2_2

New Line.l(r:p1rdt528lv-p1rlv842) Units=km Length=0.0582485 bus1=p1rdt528lv.1.2 bus2=p1rlv842.1.2 switch=n enabled=y phases=2 Linecode=1P_OH_AL_4/0_Zuzara_0_416_0_2_2_2_2_2_2_2_2_2_2_2_2_2_2_2_2_2_2_2_2_2_2_2_2_2_2_2_2_2

New Line.l(r:p1rdt528lv-p1rlv2715) Units=km Length=0.0178659 bus1=p1rdt528lv.1.2 bus2=p1rlv2715.1.2 switch=n enabled=y phases=2 Linecode=1P_OH_AL_2/0_Rucina_0_416_0_2_2_2_2_2_2_2_2_2_2_2_2_2_2_2_2_2_2_2_2_2_2_2_2_2_2_2_2_2

New Line.l(r:p1rdt528lv-p1rlv4742) Units=km Length=0.023942700000000004 bus1=p1rdt528lv.1.2 bus2=p1rlv4742.1.2 switch=n enabled=y phases=2 Linecode=1P_OH_AL_2/0_Rucina_0_416_0_2_2_2_2_2_2_2_2_2_2_2_2_2_2_2_2_2_2_2_2_2_2_2_2_2_2_2_2_2

New Line.l(r:p1rdt528lv-p1rlv12761) Units=km Length=0.0293277 bus1=p1rdt528lv.1.2 bus2=p1rlv12761.1.2 switch=n enabled=y phases=2 Linecode=1P_OH_AL_4/0_Zuzara_0_416_0_2_2_2_2_2_2_2_2_2_2_2_2_2_2_2_2_2_2_2_2_2_2_2_2_2_2_2_2_2

New Line.l(r:p1rdt528lv-p1rlv13272) Units=km Length=0.0225095 bus1=p1rdt528lv.1.2 bus2=p1rlv13272.1.2 switch=n enabled=y phases=2 Linecode=1P_OH_AL_2/0_Rucina_0_416_0_2_2_2_2_2_2_2_2_2_2_2_2_2_2_2_2_2_2_2_2_2_2_2_2_2_2_2_2_2

New Line.l(r:p1rdt529lv-p1rlv542) Units=km Length=0.001 bus1=p1rdt529lv.1.2 bus2=p1rlv542.1.2 switch=n enabled=y phases=2 Linecode=1P_OH_AL_4_Periwinkle_0_416_0_2_2_2_2_2_2_2_2_2_2_2_2_2_2_2_2_2_2_2_2_2_2_2_2_2_2_2_2_2

New Line.l(r:p1rdt530lv-p1rlv543) Units=km Length=0.0666903 bus1=p1rdt530lv.1.2 bus2=p1rlv543.1.2 switch=n enabled=y phases=2 Linecode=1P_OH_AL_4/0_Zuzara_0_416_0_2_2_2_2_2_2_2_2_2_2_2_2_2_2_2_2_2_2_2_2_2_2_2_2_2_2_2_2_2

New Line.l(r:p1rdt652lv-p1rlv674) Units=km Length=0.001 bus1=p1rdt652lv.1.2 bus2=p1rlv674.1.2 switch=n enabled=y phases=2 Linecode=1P_OH_AL_4_Periwinkle_0_416_0_2_2_2_2_2_2_2_2_2_2_2_2_2_2_2_2_2_2_2_2_2_2_2_2_2_2_2_2_2

New Line.l(r:p1rdt654lv-p1rlv676) Units=km Length=0.05761 bus1=p1rdt654lv.1.2 bus2=p1rlv676.1.2 switch=n enabled=y phases=2 Linecode=1P_OH_AL_4/0_Zuzara_0_416_0_2_2_2_2_2_2_2_2_2_2_2_2_2_2_2_2_2_2_2_2_2_2_2_2_2_2_2_2_2

New Line.l(r:p1rdt655lv-p1rlv677) Units=km Length=0.0925751 bus1=p1rdt655lv.1.2 bus2=p1rlv677.1.2 switch=n enabled=y phases=2 Linecode=1P_OH_AL_4/0_Zuzara_0_416_0_2_2_2_2_2_2_2_2_2_2_2_2_2_2_2_2_2_2_2_2_2_2_2_2_2_2_2_2_2

New Line.l(r:p1rdt656lv-p1rlv4033) Units=km Length=0.0911287 bus1=p1rdt656lv.1.2 bus2=p1rlv4033.1.2 switch=n enabled=y phases=2 Linecode=1P_OH_AL_4/0_Zuzara_0_416_0_2_2_2_2_2_2_2_2_2_2_2_2_2_2_2_2_2_2_2_2_2_2_2_2_2_2_2_2_2

New Line.l(r:p1rdt656lv-p1rlv6319) Units=km Length=0.0912049 bus1=p1rdt656lv.1.2 bus2=p1rlv6319.1.2 switch=n enabled=y phases=2 Linecode=1P_OH_AL_4/0_Zuzara_0_416_0_2_2_2_2_2_2_2_2_2_2_2_2_2_2_2_2_2_2_2_2_2_2_2_2_2_2_2_2_2

New Line.l(r:p1rdm1512-p1rlv678) Units=km Length=0.105763 bus1=p1rdm1512.1.2 bus2=p1rlv678.1.2 switch=n enabled=y phases=2 Linecode=1P_OH_AL_4/0_Zuzara_0_416_0_2_2_2_2_2_2_2_2_2_2_2_2_2_2_2_2_2_2_2_2_2_2_2_2_2_2_2_2_2

New Line.l(r:p1rdm1514-p1rlv5804) Units=km Length=0.127715 bus1=p1rdm1514.1.2 bus2=p1rlv5804.1.2 switch=n enabled=y phases=2 Linecode=1P_OH_AL_4/0_Zuzara_0_416_0_2_2_2_2_2_2_2_2_2_2_2_2_2_2_2_2_2_2_2_2_2_2_2_2_2_2_2_2_2

New Line.l(r:p1rdm1512-p1rdm1514) Units=km Length=0.0353273 bus1=p1rdm1512.1.2 bus2=p1rdm1514.1.2 switch=n enabled=y phases=2 Linecode=1P_OH_AL_4/0_Zuzara_0_416_0_2_2_2_2_2_2_2_2_2_2_2_2_2_2_2_2_2_2_2_2_2_2_2_2_2_2_2_2_2

New Line.l(r:p1rdm1512-p1rdt656lv) Units=km Length=0.0155401 bus1=p1rdt656lv.1.2 bus2=p1rdm1512.1.2 switch=n enabled=y phases=2 Linecode=1P_OH_AL_2/0_Rucina_0_416_0_2_2_2_2_2_2_2_2_2_2_2_2_2_2_2_2_2_2_2_2_2_2_2_2_2_2_2_2_2

New Line.l(r:p1rdt657lv-p1rlv679) Units=km Length=0.0166188 bus1=p1rdt657lv.1.2 bus2=p1rlv679.1.2 switch=n enabled=y phases=2 Linecode=1P_OH_AL_2/0_Rucina_0_416_0_2_2_2_2_2_2_2_2_2_2_2_2_2_2_2_2_2_2_2_2_2_2_2_2_2_2_2_2_2

New Line.l(r:p1rdt657lv-p1rlv2850) Units=km Length=0.0166188 bus1=p1rdt657lv.1.2 bus2=p1rlv2850.1.2 switch=n enabled=y phases=2 Linecode=1P_OH_AL_2/0_Rucina_0_416_0_2_2_2_2_2_2_2_2_2_2_2_2_2_2_2_2_2_2_2_2_2_2_2_2_2_2_2_2_2

New Line.l(r:p1rdt807lv-p1rlv843) Units=km Length=0.001 bus1=p1rdt807lv.1.2 bus2=p1rlv843.1.2 switch=n enabled=y phases=2 Linecode=1P_OH_AL_4_Periwinkle_0_416_0_2_2_2_2_2_2_2_2_2_2_2_2_2_2_2_2_2_2_2_2_2_2_2_2_2_2_2_2_2

New Line.l(r:p1rdt924lv-p1rlv970) Units=km Length=0.001 bus1=p1rdt924lv.1.2 bus2=p1rlv970.1.2 switch=n enabled=y phases=2 Linecode=1P_OH_AL_4_Periwinkle_0_416_0_2_2_2_2_2_2_2_2_2_2_2_2_2_2_2_2_2_2_2_2_2_2_2_2_2_2_2_2_2

New Line.l(r:p1rdt1035lv-p1rlv1093) Units=km Length=0.0185929 bus1=p1rdt1035lv.1.2 bus2=p1rlv1093.1.2 switch=n enabled=y phases=2 Linecode=1P_OH_AL_2/0_Rucina_0_416_0_2_2_2_2_2_2_2_2_2_2_2_2_2_2_2_2_2_2_2_2_2_2_2_2_2_2_2_2_2

New Line.l(r:p1rdt1036lv-p1rlv1094) Units=km Length=0.07259120000000001 bus1=p1rdt1036lv.1.2 bus2=p1rlv1094.1.2 switch=n enabled=y phases=2 Linecode=1P_OH_AL_4/0_Zuzara_0_416_0_2_2_2_2_2_2_2_2_2_2_2_2_2_2_2_2_2_2_2_2_2_2_2_2_2_2_2_2_2

New Line.l(r:p1rdt1036lv-p1rlv7647) Units=km Length=0.0173172 bus1=p1rdt1036lv.1.2 bus2=p1rlv7647.1.2 switch=n enabled=y phases=2 Linecode=1P_OH_AL_2/0_Rucina_0_416_0_2_2_2_2_2_2_2_2_2_2_2_2_2_2_2_2_2_2_2_2_2_2_2_2_2_2_2_2_2

New Line.l(r:p1rdm2324-p1rlv1095) Units=km Length=0.028378 bus1=p1rdm2324.1.2 bus2=p1rlv1095.1.2 switch=n enabled=y phases=2 Linecode=1P_OH_AL_4/0_Zuzara_0_416_0_2_2_2_2_2_2_2_2_2_2_2_2_2_2_2_2_2_2_2_2_2_2_2_2_2_2_2_2_2

New Line.l(r:p1rdm2324-p1rdt1037lv) Units=km Length=0.03805540000000001 bus1=p1rdt1037lv.1.2 bus2=p1rdm2324.1.2 switch=n enabled=y phases=2 Linecode=1P_OH_AL_4/0_Zuzara_0_416_0_2_2_2_2_2_2_2_2_2_2_2_2_2_2_2_2_2_2_2_2_2_2_2_2_2_2_2_2_2

New Line.l(r:p1rdm2325-p1rlv5678) Units=km Length=0.0306541 bus1=p1rdm2325.1.2 bus2=p1rlv5678.1.2 switch=n enabled=y phases=2 Linecode=1P_OH_AL_4/0_Zuzara_0_416_0_2_2_2_2_2_2_2_2_2_2_2_2_2_2_2_2_2_2_2_2_2_2_2_2_2_2_2_2_2

New Line.l(r:p1rdm2325-p1rdt1037lv) Units=km Length=0.0190234 bus1=p1rdt1037lv.1.2 bus2=p1rdm2325.1.2 switch=n enabled=y phases=2 Linecode=1P_OH_AL_2/0_Rucina_0_416_0_2_2_2_2_2_2_2_2_2_2_2_2_2_2_2_2_2_2_2_2_2_2_2_2_2_2_2_2_2

New Line.l(r:p1rdt1153lv-p1rlv1220) Units=km Length=0.0585501 bus1=p1rdt1153lv.1.2 bus2=p1rlv1220.1.2 switch=n enabled=y phases=2 Linecode=1P_OH_AL_4/0_Zuzara_0_416_0_2_2_2_2_2_2_2_2_2_2_2_2_2_2_2_2_2_2_2_2_2_2_2_2_2_2_2_2_2

New Line.l(r:p1rdm2563-p1rlv7080) Units=km Length=0.0961568 bus1=p1rdm2563.1.2 bus2=p1rlv7080.1.2 switch=n enabled=y phases=2 Linecode=1P_OH_AL_4/0_Zuzara_0_416_0_2_2_2_2_2_2_2_2_2_2_2_2_2_2_2_2_2_2_2_2_2_2_2_2_2_2_2_2_2

New Line.l(r:p1rdm2563-p1rdt1153lv) Units=km Length=0.0171328 bus1=p1rdt1153lv.1.2 bus2=p1rdm2563.1.2 switch=n enabled=y phases=2 Linecode=1P_OH_AL_2/0_Rucina_0_416_0_2_2_2_2_2_2_2_2_2_2_2_2_2_2_2_2_2_2_2_2_2_2_2_2_2_2_2_2_2

New Line.l(r:p1rdt1154lv-p1rlv1221) Units=km Length=0.001 bus1=p1rdt1154lv.1.2 bus2=p1rlv1221.1.2 switch=n enabled=y phases=2 Linecode=1P_OH_AL_4_Periwinkle_0_416_0_2_2_2_2_2_2_2_2_2_2_2_2_2_2_2_2_2_2_2_2_2_2_2_2_2_2_2_2_2

New Line.l(r:p1rdt1155lv-p1rlv1222) Units=km Length=0.0249991 bus1=p1rdt1155lv.1.2 bus2=p1rlv1222.1.2 switch=n enabled=y phases=2 Linecode=1P_OH_AL_2/0_Rucina_0_416_0_2_2_2_2_2_2_2_2_2_2_2_2_2_2_2_2_2_2_2_2_2_2_2_2_2_2_2_2_2

New Line.l(r:p1rdt1155lv-p1rlv2714) Units=km Length=0.0140394 bus1=p1rdt1155lv.1.2 bus2=p1rlv2714.1.2 switch=n enabled=y phases=2 Linecode=1P_OH_AL_2/0_Rucina_0_416_0_2_2_2_2_2_2_2_2_2_2_2_2_2_2_2_2_2_2_2_2_2_2_2_2_2_2_2_2_2

New Line.l(r:p1rdt1155lv-p1rlv8697) Units=km Length=0.0130847 bus1=p1rdt1155lv.1.2 bus2=p1rlv8697.1.2 switch=n enabled=y phases=2 Linecode=1P_OH_AL_2/0_Rucina_0_416_0_2_2_2_2_2_2_2_2_2_2_2_2_2_2_2_2_2_2_2_2_2_2_2_2_2_2_2_2_2

New Line.l(r:p1rdt1155lv-p1rlv11961) Units=km Length=0.0317221 bus1=p1rdt1155lv.1.2 bus2=p1rlv11961.1.2 switch=n enabled=y phases=2 Linecode=1P_OH_AL_4/0_Zuzara_0_416_0_2_2_2_2_2_2_2_2_2_2_2_2_2_2_2_2_2_2_2_2_2_2_2_2_2_2_2_2_2

New Line.l(r:p1rdt1274lv-p1rlv1357) Units=km Length=0.0726213 bus1=p1rdt1274lv.1.2 bus2=p1rlv1357.1.2 switch=n enabled=y phases=2 Linecode=1P_OH_AL_4/0_Zuzara_0_416_0_2_2_2_2_2_2_2_2_2_2_2_2_2_2_2_2_2_2_2_2_2_2_2_2_2_2_2_2_2

New Line.l(r:p1rdt1274lv-p1rlv2973) Units=km Length=0.0800808 bus1=p1rdt1274lv.1.2 bus2=p1rlv2973.1.2 switch=n enabled=y phases=2 Linecode=1P_OH_AL_4/0_Zuzara_0_416_0_2_2_2_2_2_2_2_2_2_2_2_2_2_2_2_2_2_2_2_2_2_2_2_2_2_2_2_2_2

New Line.l(r:p1rdt1274lv-p1rlv5677) Units=km Length=0.07559210000000001 bus1=p1rdt1274lv.1.2 bus2=p1rlv5677.1.2 switch=n enabled=y phases=2 Linecode=1P_OH_AL_4/0_Zuzara_0_416_0_2_2_2_2_2_2_2_2_2_2_2_2_2_2_2_2_2_2_2_2_2_2_2_2_2_2_2_2_2

New Line.l(r:p1rdt1274lv-p1rlv11688) Units=km Length=0.0620961 bus1=p1rdt1274lv.1.2 bus2=p1rlv11688.1.2 switch=n enabled=y phases=2 Linecode=1P_OH_AL_4/0_Zuzara_0_416_0_2_2_2_2_2_2_2_2_2_2_2_2_2_2_2_2_2_2_2_2_2_2_2_2_2_2_2_2_2

New Line.l(r:p1rdt1400lv-p1rlv1502) Units=km Length=0.0884257 bus1=p1rdt1400lv.1.2 bus2=p1rlv1502.1.2 switch=n enabled=y phases=2 Linecode=1P_OH_AL_4/0_Zuzara_0_416_0_2_2_2_2_2_2_2_2_2_2_2_2_2_2_2_2_2_2_2_2_2_2_2_2_2_2_2_2_2

New Line.l(r:p1rdt1400lv-p1rlv8033) Units=km Length=0.0419301 bus1=p1rdt1400lv.1.2 bus2=p1rlv8033.1.2 switch=n enabled=y phases=2 Linecode=1P_OH_AL_4/0_Zuzara_0_416_0_2_2_2_2_2_2_2_2_2_2_2_2_2_2_2_2_2_2_2_2_2_2_2_2_2_2_2_2_2

New Line.l(r:p1rdt1400lv-p1rlv8419) Units=km Length=0.0664936 bus1=p1rdt1400lv.1.2 bus2=p1rlv8419.1.2 switch=n enabled=y phases=2 Linecode=1P_OH_AL_4/0_Zuzara_0_416_0_2_2_2_2_2_2_2_2_2_2_2_2_2_2_2_2_2_2_2_2_2_2_2_2_2_2_2_2_2

New Line.l(r:p1rdt1400lv-p1rlv9916) Units=km Length=0.033696 bus1=p1rdt1400lv.1.2 bus2=p1rlv9916.1.2 switch=n enabled=y phases=2 Linecode=1P_OH_AL_4/0_Zuzara_0_416_0_2_2_2_2_2_2_2_2_2_2_2_2_2_2_2_2_2_2_2_2_2_2_2_2_2_2_2_2_2

New Line.l(r:p1rdt1400lv-p1rlv11255) Units=km Length=0.0559263 bus1=p1rdt1400lv.1.2 bus2=p1rlv11255.1.2 switch=n enabled=y phases=2 Linecode=1P_OH_AL_4/0_Zuzara_0_416_0_2_2_2_2_2_2_2_2_2_2_2_2_2_2_2_2_2_2_2_2_2_2_2_2_2_2_2_2_2

New Line.l(r:p1rdt1402lv-p1rlv1505) Units=km Length=0.001 bus1=p1rdt1402lv.1.2 bus2=p1rlv1505.1.2 switch=n enabled=y phases=2 Linecode=1P_OH_AL_4_Periwinkle_0_416_0_2_2_2_2_2_2_2_2_2_2_2_2_2_2_2_2_2_2_2_2_2_2_2_2_2_2_2_2_2

New Line.l(r:p1rdt1613lv-p1rlv1752) Units=km Length=0.0212912 bus1=p1rdt1613lv.1.2 bus2=p1rlv1752.1.2 switch=n enabled=y phases=2 Linecode=1P_OH_AL_2/0_Rucina_0_416_0_2_2_2_2_2_2_2_2_2_2_2_2_2_2_2_2_2_2_2_2_2_2_2_2_2_2_2_2_2

New Line.l(r:p1rdt1613lv-p1rlv12899) Units=km Length=0.0212912 bus1=p1rdt1613lv.1.2 bus2=p1rlv12899.1.2 switch=n enabled=y phases=2 Linecode=1P_OH_AL_2/0_Rucina_0_416_0_2_2_2_2_2_2_2_2_2_2_2_2_2_2_2_2_2_2_2_2_2_2_2_2_2_2_2_2_2

New Line.l(r:p1rdm3553-p1rlv1754) Units=km Length=0.042866 bus1=p1rdm3553.1.2 bus2=p1rlv1754.1.2 switch=n enabled=y phases=2 Linecode=1P_OH_AL_4/0_Zuzara_0_416_0_2_2_2_2_2_2_2_2_2_2_2_2_2_2_2_2_2_2_2_2_2_2_2_2_2_2_2_2_2

New Line.l(r:p1rdm3553-p1rdt1614lv) Units=km Length=0.013697 bus1=p1rdt1614lv.1.2 bus2=p1rdm3553.1.2 switch=n enabled=y phases=2 Linecode=1P_OH_AL_2/0_Rucina_0_416_0_2_2_2_2_2_2_2_2_2_2_2_2_2_2_2_2_2_2_2_2_2_2_2_2_2_2_2_2_2

New Line.l(r:p1rdm3554-p1rlv8967) Units=km Length=0.0421698 bus1=p1rdm3554.1.2 bus2=p1rlv8967.1.2 switch=n enabled=y phases=2 Linecode=1P_OH_AL_4/0_Zuzara_0_416_0_2_2_2_2_2_2_2_2_2_2_2_2_2_2_2_2_2_2_2_2_2_2_2_2_2_2_2_2_2

New Line.l(r:p1rdm3554-p1rdt1614lv) Units=km Length=0.0137007 bus1=p1rdt1614lv.1.2 bus2=p1rdm3554.1.2 switch=n enabled=y phases=2 Linecode=1P_OH_AL_2/0_Rucina_0_416_0_2_2_2_2_2_2_2_2_2_2_2_2_2_2_2_2_2_2_2_2_2_2_2_2_2_2_2_2_2

New Line.l(r:p1rdt1615lv-p1rlv1755) Units=km Length=0.001 bus1=p1rdt1615lv.1.2 bus2=p1rlv1755.1.2 switch=n enabled=y phases=2 Linecode=1P_OH_AL_4_Periwinkle_0_416_0_2_2_2_2_2_2_2_2_2_2_2_2_2_2_2_2_2_2_2_2_2_2_2_2_2_2_2_2_2

New Line.l(r:p1rdt1721lv-p1rlv1884) Units=km Length=0.0324711 bus1=p1rdt1721lv.1.2 bus2=p1rlv1884.1.2 switch=n enabled=y phases=2 Linecode=1P_OH_AL_4/0_Zuzara_0_416_0_2_2_2_2_2_2_2_2_2_2_2_2_2_2_2_2_2_2_2_2_2_2_2_2_2_2_2_2_2

New Line.l(r:p1rdt1722lv-p1rlv1885) Units=km Length=0.001 bus1=p1rdt1722lv.1.2 bus2=p1rlv1885.1.2 switch=n enabled=y phases=2 Linecode=1P_OH_AL_4_Periwinkle_0_416_0_2_2_2_2_2_2_2_2_2_2_2_2_2_2_2_2_2_2_2_2_2_2_2_2_2_2_2_2_2

New Line.l(r:p1rdt1723lv-p1rlv9754) Units=km Length=0.0361149 bus1=p1rdt1723lv.1.2 bus2=p1rlv9754.1.2 switch=n enabled=y phases=2 Linecode=1P_OH_AL_4/0_Zuzara_0_416_0_2_2_2_2_2_2_2_2_2_2_2_2_2_2_2_2_2_2_2_2_2_2_2_2_2_2_2_2_2

New Line.l(r:p1rdm3763-p1rlv1886) Units=km Length=0.0591346 bus1=p1rdm3763.1.2 bus2=p1rlv1886.1.2 switch=n enabled=y phases=2 Linecode=1P_OH_AL_4/0_Zuzara_0_416_0_2_2_2_2_2_2_2_2_2_2_2_2_2_2_2_2_2_2_2_2_2_2_2_2_2_2_2_2_2

New Line.l(r:p1rdm3763-p1rdt1723lv) Units=km Length=0.0167562 bus1=p1rdt1723lv.1.2 bus2=p1rdm3763.1.2 switch=n enabled=y phases=2 Linecode=1P_OH_AL_2/0_Rucina_0_416_0_2_2_2_2_2_2_2_2_2_2_2_2_2_2_2_2_2_2_2_2_2_2_2_2_2_2_2_2_2

New Line.l(r:p1rdt1724lv-p1rlv1887) Units=km Length=0.0754541 bus1=p1rdt1724lv.1.2 bus2=p1rlv1887.1.2 switch=n enabled=y phases=2 Linecode=1P_OH_AL_4/0_Zuzara_0_416_0_2_2_2_2_2_2_2_2_2_2_2_2_2_2_2_2_2_2_2_2_2_2_2_2_2_2_2_2_2

New Line.l(r:p1rdt1725lv-p1rlv1888) Units=km Length=0.0590447 bus1=p1rdt1725lv.1.2 bus2=p1rlv1888.1.2 switch=n enabled=y phases=2 Linecode=1P_OH_AL_4/0_Zuzara_0_416_0_2_2_2_2_2_2_2_2_2_2_2_2_2_2_2_2_2_2_2_2_2_2_2_2_2_2_2_2_2

New Line.l(r:p1rdt1725lv-p1rlv8420) Units=km Length=0.0590447 bus1=p1rdt1725lv.1.2 bus2=p1rlv8420.1.2 switch=n enabled=y phases=2 Linecode=1P_OH_AL_4/0_Zuzara_0_416_0_2_2_2_2_2_2_2_2_2_2_2_2_2_2_2_2_2_2_2_2_2_2_2_2_2_2_2_2_2

New Line.l(r:p1rdt1842lv-p1rlv2033) Units=km Length=0.0615236 bus1=p1rdt1842lv.1.2 bus2=p1rlv2033.1.2 switch=n enabled=y phases=2 Linecode=1P_OH_AL_4/0_Zuzara_0_416_0_2_2_2_2_2_2_2_2_2_2_2_2_2_2_2_2_2_2_2_2_2_2_2_2_2_2_2_2_2

New Line.l(r:p1rdt1843lv-p1rlv2034) Units=km Length=0.0249775 bus1=p1rdt1843lv.1.2 bus2=p1rlv2034.1.2 switch=n enabled=y phases=2 Linecode=1P_OH_AL_2/0_Rucina_0_416_0_2_2_2_2_2_2_2_2_2_2_2_2_2_2_2_2_2_2_2_2_2_2_2_2_2_2_2_2_2

New Line.l(r:p1rdt1843lv-p1rlv4301) Units=km Length=0.0137027 bus1=p1rdt1843lv.1.2 bus2=p1rlv4301.1.2 switch=n enabled=y phases=2 Linecode=1P_OH_AL_2/0_Rucina_0_416_0_2_2_2_2_2_2_2_2_2_2_2_2_2_2_2_2_2_2_2_2_2_2_2_2_2_2_2_2_2

New Line.l(r:p1rdt1843lv-p1rlv5929) Units=km Length=0.0148753 bus1=p1rdt1843lv.1.2 bus2=p1rlv5929.1.2 switch=n enabled=y phases=2 Linecode=1P_OH_AL_2/0_Rucina_0_416_0_2_2_2_2_2_2_2_2_2_2_2_2_2_2_2_2_2_2_2_2_2_2_2_2_2_2_2_2_2

New Line.l(r:p1rdt1843lv-p1rlv13791) Units=km Length=0.0222011 bus1=p1rdt1843lv.1.2 bus2=p1rlv13791.1.2 switch=n enabled=y phases=2 Linecode=1P_OH_AL_2/0_Rucina_0_416_0_2_2_2_2_2_2_2_2_2_2_2_2_2_2_2_2_2_2_2_2_2_2_2_2_2_2_2_2_2

New Line.l(r:p1rdt1844lv-p1rlv2035) Units=km Length=0.0173774 bus1=p1rdt1844lv.1.2 bus2=p1rlv2035.1.2 switch=n enabled=y phases=2 Linecode=1P_OH_AL_2/0_Rucina_0_416_0_2_2_2_2_2_2_2_2_2_2_2_2_2_2_2_2_2_2_2_2_2_2_2_2_2_2_2_2_2

New Line.l(r:p1rdt1844lv-p1rlv6705) Units=km Length=0.0173774 bus1=p1rdt1844lv.1.2 bus2=p1rlv6705.1.2 switch=n enabled=y phases=2 Linecode=1P_OH_AL_2/0_Rucina_0_416_0_2_2_2_2_2_2_2_2_2_2_2_2_2_2_2_2_2_2_2_2_2_2_2_2_2_2_2_2_2

New Line.l(r:p1rdt1953lv-p1rlv2162) Units=km Length=0.0647721 bus1=p1rdt1953lv.1.2 bus2=p1rlv2162.1.2 switch=n enabled=y phases=2 Linecode=1P_OH_AL_4/0_Zuzara_0_416_0_2_2_2_2_2_2_2_2_2_2_2_2_2_2_2_2_2_2_2_2_2_2_2_2_2_2_2_2_2

New Line.l(r:p1rdt1953lv-p1rlv7649) Units=km Length=0.0647721 bus1=p1rdt1953lv.1.2 bus2=p1rlv7649.1.2 switch=n enabled=y phases=2 Linecode=1P_OH_AL_4/0_Zuzara_0_416_0_2_2_2_2_2_2_2_2_2_2_2_2_2_2_2_2_2_2_2_2_2_2_2_2_2_2_2_2_2

New Line.l(r:p1rdt1954lv-p1rlv2163) Units=km Length=0.08685970000000001 bus1=p1rdt1954lv.1.2 bus2=p1rlv2163.1.2 switch=n enabled=y phases=2 Linecode=1P_OH_AL_4/0_Zuzara_0_416_0_2_2_2_2_2_2_2_2_2_2_2_2_2_2_2_2_2_2_2_2_2_2_2_2_2_2_2_2_2

New Line.l(r:p1rdt2075lv-p1rlv2311) Units=km Length=0.001 bus1=p1rdt2075lv.1.2 bus2=p1rlv2311.1.2 switch=n enabled=y phases=2 Linecode=1P_OH_AL_4_Periwinkle_0_416_0_2_2_2_2_2_2_2_2_2_2_2_2_2_2_2_2_2_2_2_2_2_2_2_2_2_2_2_2_2

New Line.l(r:p1rdt2194lv-p1rlv2449) Units=km Length=0.001 bus1=p1rdt2194lv.1.2 bus2=p1rlv2449.1.2 switch=n enabled=y phases=2 Linecode=1P_OH_AL_4_Periwinkle_0_416_0_2_2_2_2_2_2_2_2_2_2_2_2_2_2_2_2_2_2_2_2_2_2_2_2_2_2_2_2_2

New Line.l(r:p1rdm4691-p1rlv2450) Units=km Length=0.0426886 bus1=p1rdm4691.1.2 bus2=p1rlv2450.1.2 switch=n enabled=y phases=2 Linecode=1P_OH_AL_4/0_Zuzara_0_416_0_2_2_2_2_2_2_2_2_2_2_2_2_2_2_2_2_2_2_2_2_2_2_2_2_2_2_2_2_2

New Line.l(r:p1rdm4691-p1rlv10569) Units=km Length=0.0706538 bus1=p1rdm4691.1.2 bus2=p1rlv10569.1.2 switch=n enabled=y phases=2 Linecode=1P_OH_AL_4/0_Zuzara_0_416_0_2_2_2_2_2_2_2_2_2_2_2_2_2_2_2_2_2_2_2_2_2_2_2_2_2_2_2_2_2

New Line.l(r:p1rdm4691-p1rlv13018) Units=km Length=0.08851 bus1=p1rdm4691.1.2 bus2=p1rlv13018.1.2 switch=n enabled=y phases=2 Linecode=1P_OH_AL_4/0_Zuzara_0_416_0_2_2_2_2_2_2_2_2_2_2_2_2_2_2_2_2_2_2_2_2_2_2_2_2_2_2_2_2_2

New Line.l(r:p1rdm4692-p1rlv2576) Units=km Length=0.0807431 bus1=p1rdm4692.1.2 bus2=p1rlv2576.1.2 switch=n enabled=y phases=2 Linecode=1P_OH_AL_4/0_Zuzara_0_416_0_2_2_2_2_2_2_2_2_2_2_2_2_2_2_2_2_2_2_2_2_2_2_2_2_2_2_2_2_2

New Line.l(r:p1rdm4691-p1rdm4692) Units=km Length=0.0127707 bus1=p1rdm4691.1.2 bus2=p1rdm4692.1.2 switch=n enabled=y phases=2 Linecode=1P_OH_AL_2/0_Rucina_0_416_0_2_2_2_2_2_2_2_2_2_2_2_2_2_2_2_2_2_2_2_2_2_2_2_2_2_2_2_2_2

New Line.l(r:p1rdm4691-p1rdt2195lv) Units=km Length=0.0127827 bus1=p1rdt2195lv.1.2 bus2=p1rdm4691.1.2 switch=n enabled=y phases=2 Linecode=1P_OH_AL_2/0_Rucina_0_416_0_2_2_2_2_2_2_2_2_2_2_2_2_2_2_2_2_2_2_2_2_2_2_2_2_2_2_2_2_2

New Line.l(r:p1rdm4693-p1rlv7505) Units=km Length=0.116231 bus1=p1rdm4693.1.2 bus2=p1rlv7505.1.2 switch=n enabled=y phases=2 Linecode=1P_OH_AL_4/0_Zuzara_0_416_0_2_2_2_2_2_2_2_2_2_2_2_2_2_2_2_2_2_2_2_2_2_2_2_2_2_2_2_2_2

New Line.l(r:p1rdm4693-p1rdt2195lv) Units=km Length=0.0353649 bus1=p1rdt2195lv.1.2 bus2=p1rdm4693.1.2 switch=n enabled=y phases=2 Linecode=1P_OH_AL_4/0_Zuzara_0_416_0_2_2_2_2_2_2_2_2_2_2_2_2_2_2_2_2_2_2_2_2_2_2_2_2_2_2_2_2_2

New Line.l(r:p1rdt2295lv-p1rlv2574) Units=km Length=0.001 bus1=p1rdt2295lv.1.2 bus2=p1rlv2574.1.2 switch=n enabled=y phases=2 Linecode=1P_OH_AL_4_Periwinkle_0_416_0_2_2_2_2_2_2_2_2_2_2_2_2_2_2_2_2_2_2_2_2_2_2_2_2_2_2_2_2_2

New Line.l(r:p1rdt2296lv-p1rlv2575) Units=km Length=0.001 bus1=p1rdt2296lv.1.2 bus2=p1rlv2575.1.2 switch=n enabled=y phases=2 Linecode=1P_OH_AL_4_Periwinkle_0_416_0_2_2_2_2_2_2_2_2_2_2_2_2_2_2_2_2_2_2_2_2_2_2_2_2_2_2_2_2_2

New Line.l(r:p1rdt2297lv-p1rlv2578) Units=km Length=0.017907 bus1=p1rdt2297lv.1.2 bus2=p1rlv2578.1.2 switch=n enabled=y phases=2 Linecode=1P_OH_AL_2/0_Rucina_0_416_0_2_2_2_2_2_2_2_2_2_2_2_2_2_2_2_2_2_2_2_2_2_2_2_2_2_2_2_2_2

New Line.l(r:p1rdt2297lv-p1rlv8698) Units=km Length=0.017907 bus1=p1rdt2297lv.1.2 bus2=p1rlv8698.1.2 switch=n enabled=y phases=2 Linecode=1P_OH_AL_2/0_Rucina_0_416_0_2_2_2_2_2_2_2_2_2_2_2_2_2_2_2_2_2_2_2_2_2_2_2_2_2_2_2_2_2

New Line.l(r:p1rdt2403lv-p1rlv2712) Units=km Length=0.00765721 bus1=p1rdt2403lv.1.2 bus2=p1rlv2712.1.2 switch=n enabled=y phases=2 Linecode=1P_OH_AL_2/0_Rucina_0_416_0_2_2_2_2_2_2_2_2_2_2_2_2_2_2_2_2_2_2_2_2_2_2_2_2_2_2_2_2_2

New Line.l(r:p1rdt2403lv-p1rlv6320) Units=km Length=0.00765721 bus1=p1rdt2403lv.1.2 bus2=p1rlv6320.1.2 switch=n enabled=y phases=2 Linecode=1P_OH_AL_2/0_Rucina_0_416_0_2_2_2_2_2_2_2_2_2_2_2_2_2_2_2_2_2_2_2_2_2_2_2_2_2_2_2_2_2
