New Line.l(r:p5udt8352lv-p5ulv48659) Units=km Length=0.0150888 bus1=p5udt8352lv.1.2 bus2=p5ulv48659.1.2 switch=n enabled=y phases=2 Linecode=1P_UG_AL_2/0_Converse_0_416_0_2_2_2_2

New Line.l(r:p5udm22305-p5ulv19760) Units=km Length=0.0190155 bus1=p5udm22305.1.2 bus2=p5ulv19760.1.2 switch=n enabled=y phases=2 Linecode=1P_UG_AL_1/0_Brenau_0_416_0_2_2_2_2

New Line.l(r:p5udm22305-p5ulv52089) Units=km Length=0.0152361 bus1=p5udm22305.1.2 bus2=p5ulv52089.1.2 switch=n enabled=y phases=2 Linecode=1P_UG_AL_1/0_Brenau_0_416_0_2_2_2_2

New Line.l(r:p5udm22305-p5udt8352lv) Units=km Length=0.00996093 bus1=p5udt8352lv.1.2 bus2=p5udm22305.1.2 switch=n enabled=y phases=2 Linecode=1P_UG_AL_4/0_Sweetbriar_0_416_0_2_2_2_2

New Line.l(r:p5udm22308-p5ulv66106) Units=km Length=0.0153065 bus1=p5udm22308.1.2 bus2=p5ulv66106.1.2 switch=n enabled=y phases=2 Linecode=1P_UG_AL_1/0_Brenau_0_416_0_2_2_2_2

New Line.l(r:p5udm22308-p5udt8352lv) Units=km Length=0.00996093 bus1=p5udt8352lv.1.2 bus2=p5udm22308.1.2 switch=n enabled=y phases=2 Linecode=1P_UG_AL_1/0_Brenau_0_416_0_2_2_2_2

New Line.l(r:p5udm22309-p5ulv19761) Units=km Length=0.0132022 bus1=p5udm22309.1.2 bus2=p5ulv19761.1.2 switch=n enabled=y phases=2 Linecode=1P_UG_AL_1/0_Brenau_0_416_0_2_2_2_2

New Line.l(r:p5udm22309-p5ulv37552) Units=km Length=0.0112783 bus1=p5udm22309.1.2 bus2=p5ulv37552.1.2 switch=n enabled=y phases=2 Linecode=1P_UG_AL_1/0_Brenau_0_416_0_2_2_2_2

New Line.l(r:p5udm22311-p5ulv31494) Units=km Length=0.0116766 bus1=p5udm22311.1.2 bus2=p5ulv31494.1.2 switch=n enabled=y phases=2 Linecode=1P_UG_AL_1/0_Brenau_0_416_0_2_2_2_2

New Line.l(r:p5udm22311-p5ulv43110) Units=km Length=0.016282 bus1=p5udm22311.1.2 bus2=p5ulv43110.1.2 switch=n enabled=y phases=2 Linecode=1P_UG_AL_1/0_Brenau_0_416_0_2_2_2_2

New Line.l(r:p5udm22311-p5ulv51507) Units=km Length=0.037433 bus1=p5udm22311.1.2 bus2=p5ulv51507.1.2 switch=n enabled=y phases=2 Linecode=1P_UG_AL_1/0_Brenau_0_416_0_2_2_2_2

New Line.l(r:p5udm22309-p5udm22311) Units=km Length=0.009708890000000001 bus1=p5udm22309.1.2 bus2=p5udm22311.1.2 switch=n enabled=y phases=2 Linecode=1P_UG_AL_4/0_Sweetbriar_0_416_0_2_2_2_2

New Line.l(r:p5udm22309-p5udt8353lv) Units=km Length=0.00970008 bus1=p5udt8353lv.1.2 bus2=p5udm22309.1.2 switch=n enabled=y phases=2 Linecode=1P_UG_AL_4/0_Sweetbriar_0_416_0_2_2_2_2

New Line.l(r:p5udm22310-p5ulv28169) Units=km Length=0.0149059 bus1=p5udm22310.1.2 bus2=p5ulv28169.1.2 switch=n enabled=y phases=2 Linecode=1P_UG_AL_1/0_Brenau_0_416_0_2_2_2_2

New Line.l(r:p5udm22310-p5udt8353lv) Units=km Length=0.0484997 bus1=p5udt8353lv.1.2 bus2=p5udm22310.1.2 switch=n enabled=y phases=2 Linecode=1P_UG_AL_1/0_Brenau_0_416_0_2_2_2_2

New Line.l(r:p5udt8354lv-p5ulv68338) Units=km Length=0.0408068 bus1=p5udt8354lv.1.2 bus2=p5ulv68338.1.2 switch=n enabled=y phases=2 Linecode=1P_UG_AL_1/0_Brenau_0_416_0_2_2_2_2

New Line.l(r:p5udt8354lv-p5ulv72288) Units=km Length=0.033334 bus1=p5udt8354lv.1.2 bus2=p5ulv72288.1.2 switch=n enabled=y phases=2 Linecode=1P_UG_AL_1/0_Brenau_0_416_0_2_2_2_2

New Line.l(r:p5udm22315-p5ulv19762) Units=km Length=0.016406 bus1=p5udm22315.1.2 bus2=p5ulv19762.1.2 switch=n enabled=y phases=2 Linecode=1P_UG_AL_1/0_Brenau_0_416_0_2_2_2_2

New Line.l(r:p5udm22315-p5ulv62807) Units=km Length=0.0138906 bus1=p5udm22315.1.2 bus2=p5ulv62807.1.2 switch=n enabled=y phases=2 Linecode=1P_UG_AL_1/0_Brenau_0_416_0_2_2_2_2

New Line.l(r:p5udm22315-p5udt8354lv) Units=km Length=0.00964658 bus1=p5udt8354lv.1.2 bus2=p5udm22315.1.2 switch=n enabled=y phases=2 Linecode=1P_UG_AL_4/0_Sweetbriar_0_416_0_2_2_2_2

New Line.l(r:p5udt8879lv-p5ulv20311) Units=km Length=0.0173415 bus1=p5udt8879lv.1.2 bus2=p5ulv20311.1.2 switch=n enabled=y phases=2 Linecode=1P_UG_AL_1/0_Brenau_0_416_0_2_2_2_2

New Line.l(r:p5udt8879lv-p5ulv21947) Units=km Length=0.0332186 bus1=p5udt8879lv.1.2 bus2=p5ulv21947.1.2 switch=n enabled=y phases=2 Linecode=1P_UG_AL_1/0_Brenau_0_416_0_2_2_2_2

New Line.l(r:p5udt8879lv-p5ulv34211) Units=km Length=0.0171142 bus1=p5udt8879lv.1.2 bus2=p5ulv34211.1.2 switch=n enabled=y phases=2 Linecode=1P_UG_AL_1/0_Brenau_0_416_0_2_2_2_2

New Line.l(r:p5udt8879lv-p5ulv53717) Units=km Length=0.0168548 bus1=p5udt8879lv.1.2 bus2=p5ulv53717.1.2 switch=n enabled=y phases=2 Linecode=1P_UG_AL_1/0_Brenau_0_416_0_2_2_2_2

New Line.l(r:p5udm24011-p5ulv25896) Units=km Length=0.0137468 bus1=p5udm24011.1.2 bus2=p5ulv25896.1.2 switch=n enabled=y phases=2 Linecode=1P_UG_AL_1/0_Brenau_0_416_0_2_2_2_2

New Line.l(r:p5udm24011-p5udt8879lv) Units=km Length=0.00966488 bus1=p5udt8879lv.1.2 bus2=p5udm24011.1.2 switch=n enabled=y phases=2 Linecode=1P_UG_AL_1/0_Brenau_0_416_0_2_2_2_2

New Line.l(r:p5udt8882lv-p5ulv20314) Units=km Length=0.017958400000000003 bus1=p5udt8882lv.1.2 bus2=p5ulv20314.1.2 switch=n enabled=y phases=2 Linecode=1P_UG_AL_1/0_Brenau_0_416_0_2_2_2_2

New Line.l(r:p5udm24029-p5ulv58284) Units=km Length=0.0338036 bus1=p5udm24029.1.2 bus2=p5ulv58284.1.2 switch=n enabled=y phases=2 Linecode=1P_UG_AL_1/0_Brenau_0_416_0_2_2_2_2

New Line.l(r:p5udm24030-p5ulv63397) Units=km Length=0.00836732 bus1=p5udm24030.1.2 bus2=p5ulv63397.1.2 switch=n enabled=y phases=2 Linecode=1P_UG_AL_1/0_Brenau_0_416_0_2_2_2_2

New Line.l(r:p5udm24028-p5ulv58283) Units=km Length=0.0141102 bus1=p5udm24028.1.2 bus2=p5ulv58283.1.2 switch=n enabled=y phases=2 Linecode=1P_UG_AL_1/0_Brenau_0_416_0_2_2_2_2

New Line.l(r:p5udm24028-p5udm24030) Units=km Length=0.009574780000000001 bus1=p5udm24030.1.2 bus2=p5udm24028.1.2 switch=n enabled=y phases=2 Linecode=1P_UG_AL_1/0_Brenau_0_416_0_2_2_2_2

New Line.l(r:p5udm24029-p5udm24030) Units=km Length=0.009574780000000001 bus1=p5udm24029.1.2 bus2=p5udm24030.1.2 switch=n enabled=y phases=2 Linecode=1P_UG_AL_4/0_Sweetbriar_0_416_0_2_2_2_2

New Line.l(r:p5udm24029-p5udt8882lv) Units=km Length=0.009579530000000001 bus1=p5udt8882lv.1.2 bus2=p5udm24029.1.2 switch=n enabled=y phases=2 Linecode=1P_UG_AL_4/0_Sweetbriar_0_416_0_2_2_2_2

New Line.l(r:p5udm24031-p5ulv72830) Units=km Length=0.00998246 bus1=p5udm24031.1.2 bus2=p5ulv72830.1.2 switch=n enabled=y phases=2 Linecode=1P_UG_AL_1/0_Brenau_0_416_0_2_2_2_2

New Line.l(r:p5udm24027-p5ulv58282) Units=km Length=0.010724 bus1=p5udm24027.1.2 bus2=p5ulv58282.1.2 switch=n enabled=y phases=2 Linecode=1P_UG_AL_1/0_Brenau_0_416_0_2_2_2_2

New Line.l(r:p5udm24027-p5udm24031) Units=km Length=0.0327072 bus1=p5udm24031.1.2 bus2=p5udm24027.1.2 switch=n enabled=y phases=2 Linecode=1P_UG_AL_1/0_Brenau_0_416_0_2_2_2_2

New Line.l(r:p5udm24031-p5udt8882lv) Units=km Length=0.00956598 bus1=p5udt8882lv.1.2 bus2=p5udm24031.1.2 switch=n enabled=y phases=2 Linecode=1P_UG_AL_4/0_Sweetbriar_0_416_0_2_2_2_2

New Line.l(r:p5udm25615-p5ulv20856) Units=km Length=0.0158526 bus1=p5udm25615.1.2 bus2=p5ulv20856.1.2 switch=n enabled=y phases=2 Linecode=1P_UG_AL_1/0_Brenau_0_416_0_2_2_2_2

New Line.l(r:p5udm25615-p5ulv20857) Units=km Length=0.0138612 bus1=p5udm25615.1.2 bus2=p5ulv20857.1.2 switch=n enabled=y phases=2 Linecode=1P_UG_AL_1/0_Brenau_0_416_0_2_2_2_2

New Line.l(r:p5udm25619-p5ulv58264) Units=km Length=0.015038900000000001 bus1=p5udm25619.1.2 bus2=p5ulv58264.1.2 switch=n enabled=y phases=2 Linecode=1P_OH_AL_2/0_Rucina_0_416_0_2_2_2_2

New Line.l(r:p5udm25615-p5udm25619) Units=km Length=0.08553350000000001 bus1=p5udm25615.1.2 bus2=p5udm25619.1.2 switch=n enabled=y phases=2 Linecode=1P_OH_AL_4/0_Zuzara_0_416_0_2_2_2_2

New Line.l(r:p5udm25615-p5udt9388lv) Units=km Length=0.00959713 bus1=p5udt9388lv.1.2 bus2=p5udm25615.1.2 switch=n enabled=y phases=2 Linecode=1P_UG_AL_4/0_Sweetbriar_0_416_0_2_2_2_2

New Line.l(r:p5udm25620-p5ulv68330) Units=km Length=0.0148034 bus1=p5udm25620.1.2 bus2=p5ulv68330.1.2 switch=n enabled=y phases=2 Linecode=1P_UG_AL_1/0_Brenau_0_416_0_2_2_2_2

New Line.l(r:p5udm25617-p5ulv26445) Units=km Length=0.016367 bus1=p5udm25617.1.2 bus2=p5ulv26445.1.2 switch=n enabled=y phases=2 Linecode=1P_UG_AL_1/0_Brenau_0_416_0_2_2_2_2

New Line.l(r:p5udm25618-p5ulv53172) Units=km Length=0.0140441 bus1=p5udm25618.1.2 bus2=p5ulv53172.1.2 switch=n enabled=y phases=2 Linecode=1P_UG_AL_1/0_Brenau_0_416_0_2_2_2_2

New Line.l(r:p5udm25617-p5udm25618) Units=km Length=0.00960188 bus1=p5udm25617.1.2 bus2=p5udm25618.1.2 switch=n enabled=y phases=2 Linecode=1P_UG_AL_1/0_Brenau_0_416_0_2_2_2_2

New Line.l(r:p5udm25617-p5udm25620) Units=km Length=0.00959713 bus1=p5udm25620.1.2 bus2=p5udm25617.1.2 switch=n enabled=y phases=2 Linecode=1P_UG_AL_2/0_Converse_0_416_0_2_2_2_2

New Line.l(r:p5udm25620-p5udt9388lv) Units=km Length=0.00961068 bus1=p5udt9388lv.1.2 bus2=p5udm25620.1.2 switch=n enabled=y phases=2 Linecode=1P_UG_AL_4/0_Sweetbriar_0_416_0_2_2_2_2

New Line.l(r:p5udt9389lv-p5ulv20858) Units=km Length=0.0142857 bus1=p5udt9389lv.1.2 bus2=p5ulv20858.1.2 switch=n enabled=y phases=2 Linecode=1P_UG_AL_1/0_Brenau_0_416_0_2_2_2_2

New Line.l(r:p5udm25622-p5ulv35291) Units=km Length=0.0137851 bus1=p5udm25622.1.2 bus2=p5ulv35291.1.2 switch=n enabled=y phases=2 Linecode=1P_UG_AL_1/0_Brenau_0_416_0_2_2_2_2

New Line.l(r:p5udm25622-p5udt9389lv) Units=km Length=0.00960188 bus1=p5udt9389lv.1.2 bus2=p5udm25622.1.2 switch=n enabled=y phases=2 Linecode=1P_UG_AL_1/0_Brenau_0_416_0_2_2_2_2

New Line.l(r:p5udt9390lv-p5ulv51510) Units=km Length=0.0100871 bus1=p5udt9390lv.1.2 bus2=p5ulv51510.1.2 switch=n enabled=y phases=2 Linecode=1P_UG_AL_1/0_Brenau_0_416_0_2_2_2_2

New Line.l(r:p5udm25624-p5ulv31497) Units=km Length=0.008394300000000002 bus1=p5udm25624.1.2 bus2=p5ulv31497.1.2 switch=n enabled=y phases=2 Linecode=1P_UG_AL_1/0_Brenau_0_416_0_2_2_2_2

New Line.l(r:p5udm25624-p5udt9390lv) Units=km Length=0.0192235 bus1=p5udt9390lv.1.2 bus2=p5udm25624.1.2 switch=n enabled=y phases=2 Linecode=1P_UG_AL_1/0_Brenau_0_416_0_2_2_2_2

New Line.l(r:p5udm25626-p5ulv70027) Units=km Length=0.0127833 bus1=p5udm25626.1.2 bus2=p5ulv70027.1.2 switch=n enabled=y phases=2 Linecode=1P_UG_AL_1/0_Brenau_0_416_0_2_2_2_2

New Line.l(r:p5udm25623-p5ulv20859) Units=km Length=0.013277 bus1=p5udm25623.1.2 bus2=p5ulv20859.1.2 switch=n enabled=y phases=2 Linecode=1P_UG_AL_1/0_Brenau_0_416_0_2_2_2_2

New Line.l(r:p5udm25623-p5udm25626) Units=km Length=0.00961412 bus1=p5udm25626.1.2 bus2=p5udm25623.1.2 switch=n enabled=y phases=2 Linecode=1P_UG_AL_1/0_Brenau_0_416_0_2_2_2_2

New Line.l(r:p5udm25626-p5udt9390lv) Units=km Length=0.00960941 bus1=p5udt9390lv.1.2 bus2=p5udm25626.1.2 switch=n enabled=y phases=2 Linecode=1P_UG_AL_2/0_Converse_0_416_0_2_2_2_2

New Line.l(r:p5udm27271-p5ulv21405) Units=km Length=0.0148389 bus1=p5udm27271.1.2 bus2=p5ulv21405.1.2 switch=n enabled=y phases=2 Linecode=1P_UG_AL_1/0_Brenau_0_416_0_2_2_2_2

New Line.l(r:p5udm27271-p5ulv32017) Units=km Length=0.0119749 bus1=p5udm27271.1.2 bus2=p5ulv32017.1.2 switch=n enabled=y phases=2 Linecode=1P_UG_AL_1/0_Brenau_0_416_0_2_2_2_2

New Line.l(r:p5udm27271-p5ulv41408) Units=km Length=0.0137773 bus1=p5udm27271.1.2 bus2=p5ulv41408.1.2 switch=n enabled=y phases=2 Linecode=1P_UG_AL_1/0_Brenau_0_416_0_2_2_2_2

New Line.l(r:p5udm27271-p5udt9888lv) Units=km Length=0.019020200000000004 bus1=p5udt9888lv.1.2 bus2=p5udm27271.1.2 switch=n enabled=y phases=2 Linecode=1P_UG_AL_4/0_Sweetbriar_0_416_0_2_2_2_2

New Line.l(r:p5udm27273-p5ulv29314) Units=km Length=0.0153869 bus1=p5udm27273.1.2 bus2=p5ulv29314.1.2 switch=n enabled=y phases=2 Linecode=1P_UG_AL_1/0_Brenau_0_416_0_2_2_2_2

New Line.l(r:p5udm27273-p5ulv55985) Units=km Length=0.0117325 bus1=p5udm27273.1.2 bus2=p5ulv55985.1.2 switch=n enabled=y phases=2 Linecode=1P_UG_AL_1/0_Brenau_0_416_0_2_2_2_2

New Line.l(r:p5udm27272-p5ulv27567) Units=km Length=0.0113227 bus1=p5udm27272.1.2 bus2=p5ulv27567.1.2 switch=n enabled=y phases=2 Linecode=1P_UG_AL_1/0_Brenau_0_416_0_2_2_2_2

New Line.l(r:p5udm27272-p5udm27273) Units=km Length=0.00950773 bus1=p5udm27273.1.2 bus2=p5udm27272.1.2 switch=n enabled=y phases=2 Linecode=1P_UG_AL_1/0_Brenau_0_416_0_2_2_2_2

New Line.l(r:p5udm27273-p5udt9888lv) Units=km Length=0.00950773 bus1=p5udt9888lv.1.2 bus2=p5udm27273.1.2 switch=n enabled=y phases=2 Linecode=1P_UG_AL_4/0_Sweetbriar_0_416_0_2_2_2_2

New Line.l(r:p5udt9890lv-p5ulv21407) Units=km Length=0.00651209 bus1=p5udt9890lv.1.2 bus2=p5ulv21407.1.2 switch=n enabled=y phases=2 Linecode=1P_OH_AL_2/0_Rucina_0_416_0_2_2_2_2

New Line.l(r:p5udt9890lv-p5ulv28743) Units=km Length=0.010583 bus1=p5udt9890lv.1.2 bus2=p5ulv28743.1.2 switch=n enabled=y phases=2 Linecode=1P_OH_AL_2/0_Rucina_0_416_0_2_2_2_2

New Line.l(r:p5udm27285-p5ulv52087) Units=km Length=0.0064002 bus1=p5udm27285.1.2 bus2=p5ulv52087.1.2 switch=n enabled=y phases=2 Linecode=1P_OH_AL_2/0_Rucina_0_416_0_2_2_2_2

New Line.l(r:p5udm27285-p5udt9890lv) Units=km Length=0.019914400000000002 bus1=p5udt9890lv.1.2 bus2=p5udm27285.1.2 switch=n enabled=y phases=2 Linecode=1P_OH_AL_2/0_Rucina_0_416_0_2_2_2_2

New Line.l(r:p5udm27287-p5ulv38674) Units=km Length=0.0135208 bus1=p5udm27287.1.2 bus2=p5ulv38674.1.2 switch=n enabled=y phases=2 Linecode=1P_UG_AL_1/0_Brenau_0_416_0_2_2_2_2

New Line.l(r:p5udm27287-p5ulv73366) Units=km Length=0.0136267 bus1=p5udm27287.1.2 bus2=p5ulv73366.1.2 switch=n enabled=y phases=2 Linecode=1P_UG_AL_1/0_Brenau_0_416_0_2_2_2_2

New Line.l(r:p5udm27288-p5ulv39766) Units=km Length=0.0135034 bus1=p5udm27288.1.2 bus2=p5ulv39766.1.2 switch=n enabled=y phases=2 Linecode=1P_UG_AL_1/0_Brenau_0_416_0_2_2_2_2

New Line.l(r:p5udm27287-p5udm27288) Units=km Length=0.00972718 bus1=p5udm27287.1.2 bus2=p5udm27288.1.2 switch=n enabled=y phases=2 Linecode=1P_UG_AL_1/0_Brenau_0_416_0_2_2_2_2

New Line.l(r:p5udm27287-p5udt9891lv) Units=km Length=0.00973193 bus1=p5udt9891lv.1.2 bus2=p5udm27287.1.2 switch=n enabled=y phases=2 Linecode=1P_UG_AL_4/0_Sweetbriar_0_416_0_2_2_2_2

New Line.l(r:p5udm27289-p5ulv64490) Units=km Length=0.014678000000000002 bus1=p5udm27289.1.2 bus2=p5ulv64490.1.2 switch=n enabled=y phases=2 Linecode=1P_UG_AL_1/0_Brenau_0_416_0_2_2_2_2

New Line.l(r:p5udm27289-p5ulv72818) Units=km Length=0.0130486 bus1=p5udm27289.1.2 bus2=p5ulv72818.1.2 switch=n enabled=y phases=2 Linecode=1P_UG_AL_1/0_Brenau_0_416_0_2_2_2_2

New Line.l(r:p5udm27286-p5ulv21408) Units=km Length=0.0120542 bus1=p5udm27286.1.2 bus2=p5ulv21408.1.2 switch=n enabled=y phases=2 Linecode=1P_UG_AL_1/0_Brenau_0_416_0_2_2_2_2

New Line.l(r:p5udm27286-p5ulv65593) Units=km Length=0.0144368 bus1=p5udm27286.1.2 bus2=p5ulv65593.1.2 switch=n enabled=y phases=2 Linecode=1P_UG_AL_1/0_Brenau_0_416_0_2_2_2_2

New Line.l(r:p5udm27286-p5udm27289) Units=km Length=0.00972718 bus1=p5udm27289.1.2 bus2=p5udm27286.1.2 switch=n enabled=y phases=2 Linecode=1P_UG_AL_4/0_Sweetbriar_0_416_0_2_2_2_2

New Line.l(r:p5udm27289-p5udt9891lv) Units=km Length=0.00973598 bus1=p5udt9891lv.1.2 bus2=p5udm27289.1.2 switch=n enabled=y phases=2 Linecode=1P_UG_AL_4/0_Sweetbriar_0_416_0_2_2_2_2

New Line.l(r:p5udt9892lv-p5ulv21409) Units=km Length=0.0125308 bus1=p5udt9892lv.1.2 bus2=p5ulv21409.1.2 switch=n enabled=y phases=2 Linecode=1P_UG_AL_1/0_Brenau_0_416_0_2_2_2_2

New Line.l(r:p5udt9892lv-p5ulv23072) Units=km Length=0.0167105 bus1=p5udt9892lv.1.2 bus2=p5ulv23072.1.2 switch=n enabled=y phases=2 Linecode=1P_UG_AL_1/0_Brenau_0_416_0_2_2_2_2

New Line.l(r:p5udm27295-p5ulv29852) Units=km Length=0.0158956 bus1=p5udm27295.1.2 bus2=p5ulv29852.1.2 switch=n enabled=y phases=2 Linecode=1P_UG_AL_1/0_Brenau_0_416_0_2_2_2_2

New Line.l(r:p5udm27295-p5udt9892lv) Units=km Length=0.038663600000000006 bus1=p5udt9892lv.1.2 bus2=p5udm27295.1.2 switch=n enabled=y phases=2 Linecode=1P_UG_AL_1/0_Brenau_0_416_0_2_2_2_2

New Line.l(r:p5udm27296-p5ulv45348) Units=km Length=0.013250100000000003 bus1=p5udm27296.1.2 bus2=p5ulv45348.1.2 switch=n enabled=y phases=2 Linecode=1P_UG_AL_4/0_Sweetbriar_0_416_0_2_2_2_2

New Line.l(r:p5udm27296-p5ulv65595) Units=km Length=0.0167766 bus1=p5udm27296.1.2 bus2=p5ulv65595.1.2 switch=n enabled=y phases=2 Linecode=1P_UG_AL_1/0_Brenau_0_416_0_2_2_2_2

New Line.l(r:p5udm27296-p5udt9892lv) Units=km Length=0.00966488 bus1=p5udt9892lv.1.2 bus2=p5udm27296.1.2 switch=n enabled=y phases=2 Linecode=1P_UG_AL_4/0_Sweetbriar_0_416_0_2_2_2_2

New Line.l(r:p5udt10370lv-p5ulv21942) Units=km Length=0.006882170000000001 bus1=p5udt10370lv.1.2 bus2=p5ulv21942.1.2 switch=n enabled=y phases=2 Linecode=1P_OH_AL_2/0_Rucina_0_416_0_2_2_2_2

New Line.l(r:p5udt10370lv-p5ulv33099) Units=km Length=0.00330504 bus1=p5udt10370lv.1.2 bus2=p5ulv33099.1.2 switch=n enabled=y phases=2 Linecode=1P_OH_AL_4_Periwinkle_0_416_0_2_2_2_2

New Line.l(r:p5udt10373lv-p5ulv21945) Units=km Length=0.0113117 bus1=p5udt10373lv.1.2 bus2=p5ulv21945.1.2 switch=n enabled=y phases=2 Linecode=1P_OH_AL_2/0_Rucina_0_416_0_2_2_2_2

New Line.l(r:p5udt10375lv-p5ulv21948) Units=km Length=0.013662100000000002 bus1=p5udt10375lv.1.2 bus2=p5ulv21948.1.2 switch=n enabled=y phases=2 Linecode=1P_UG_AL_1/0_Brenau_0_416_0_2_2_2_2

New Line.l(r:p5udm28846-p5ulv28168) Units=km Length=0.0127504 bus1=p5udm28846.1.2 bus2=p5ulv28168.1.2 switch=n enabled=y phases=2 Linecode=1P_UG_AL_1/0_Brenau_0_416_0_2_2_2_2

New Line.l(r:p5udm28846-p5udt10375lv) Units=km Length=0.00970008 bus1=p5udt10375lv.1.2 bus2=p5udm28846.1.2 switch=n enabled=y phases=2 Linecode=1P_UG_AL_1/0_Brenau_0_416_0_2_2_2_2

New Line.l(r:p5udm28847-p5ulv44210) Units=km Length=0.0143573 bus1=p5udm28847.1.2 bus2=p5ulv44210.1.2 switch=n enabled=y phases=2 Linecode=1P_UG_AL_1/0_Brenau_0_416_0_2_2_2_2

New Line.l(r:p5udm28847-p5udt10375lv) Units=km Length=0.00970008 bus1=p5udt10375lv.1.2 bus2=p5udm28847.1.2 switch=n enabled=y phases=2 Linecode=1P_UG_AL_1/0_Brenau_0_416_0_2_2_2_2

New Line.l(r:p5udt10376lv-p5ulv32570) Units=km Length=0.0126244 bus1=p5udt10376lv.1.2 bus2=p5ulv32570.1.2 switch=n enabled=y phases=2 Linecode=1P_UG_AL_1/0_Brenau_0_416_0_2_2_2_2

New Line.l(r:p5udm28848-p5ulv21949) Units=km Length=0.0163033 bus1=p5udm28848.1.2 bus2=p5ulv21949.1.2 switch=n enabled=y phases=2 Linecode=1P_UG_AL_1/0_Brenau_0_416_0_2_2_2_2

New Line.l(r:p5udm28848-p5udt10376lv) Units=km Length=0.00973598 bus1=p5udt10376lv.1.2 bus2=p5udm28848.1.2 switch=n enabled=y phases=2 Linecode=1P_UG_AL_1/0_Brenau_0_416_0_2_2_2_2

New Line.l(r:p5udm28850-p5ulv39213) Units=km Length=0.016381 bus1=p5udm28850.1.2 bus2=p5ulv39213.1.2 switch=n enabled=y phases=2 Linecode=1P_UG_AL_1/0_Brenau_0_416_0_2_2_2_2

New Line.l(r:p5udm28850-p5udt10376lv) Units=km Length=0.009744780000000001 bus1=p5udt10376lv.1.2 bus2=p5udm28850.1.2 switch=n enabled=y phases=2 Linecode=1P_UG_AL_1/0_Brenau_0_416_0_2_2_2_2

New Line.l(r:p5udt10856lv-p5ulv22499) Units=km Length=0.00795498 bus1=p5udt10856lv.1.2 bus2=p5ulv22499.1.2 switch=n enabled=y phases=2 Linecode=1P_OH_AL_2/0_Rucina_0_416_0_2_2_2_2

New Line.l(r:p5udt10856lv-p5ulv28166) Units=km Length=0.00224341 bus1=p5udt10856lv.1.2 bus2=p5ulv28166.1.2 switch=n enabled=y phases=2 Linecode=1P_OH_AL_4_Periwinkle_0_416_0_2_2_2_2

New Line.l(r:p5udt10856lv-p5ulv58831) Units=km Length=0.00831666 bus1=p5udt10856lv.1.2 bus2=p5ulv58831.1.2 switch=n enabled=y phases=2 Linecode=1P_OH_AL_2/0_Rucina_0_416_0_2_2_2_2

New Line.l(r:p5udm30315-p5ulv22498) Units=km Length=0.00394138 bus1=p5udm30315.1.2 bus2=p5ulv22498.1.2 switch=n enabled=y phases=2 Linecode=1P_OH_AL_4_Periwinkle_0_416_0_2_2_2_2

New Line.l(r:p5udm30315-p5udt10856lv) Units=km Length=0.0179995 bus1=p5udt10856lv.1.2 bus2=p5udm30315.1.2 switch=n enabled=y phases=2 Linecode=1P_OH_AL_2/0_Rucina_0_416_0_2_2_2_2

New Line.l(r:p5udt10857lv-p5ulv57140) Units=km Length=0.016571 bus1=p5udt10857lv.1.2 bus2=p5ulv57140.1.2 switch=n enabled=y phases=2 Linecode=1P_UG_AL_1/0_Brenau_0_416_0_2_2_2_2

New Line.l(r:p5udt10857lv-p5ulv63388) Units=km Length=0.0335652 bus1=p5udt10857lv.1.2 bus2=p5ulv63388.1.2 switch=n enabled=y phases=2 Linecode=1P_UG_AL_1/0_Brenau_0_416_0_2_2_2_2

New Line.l(r:p5udm30320-p5ulv29849) Units=km Length=0.0326412 bus1=p5udm30320.1.2 bus2=p5ulv29849.1.2 switch=n enabled=y phases=2 Linecode=1P_UG_AL_1/0_Brenau_0_416_0_2_2_2_2

New Line.l(r:p5udm30320-p5ulv55989) Units=km Length=0.0135405 bus1=p5udm30320.1.2 bus2=p5ulv55989.1.2 switch=n enabled=y phases=2 Linecode=1P_UG_AL_1/0_Brenau_0_416_0_2_2_2_2

New Line.l(r:p5udm30322-p5ulv53173) Units=km Length=0.0132598 bus1=p5udm30322.1.2 bus2=p5ulv53173.1.2 switch=n enabled=y phases=2 Linecode=1P_UG_AL_1/0_Brenau_0_416_0_2_2_2_2

New Line.l(r:p5udm30320-p5udm30322) Units=km Length=0.00979423 bus1=p5udm30320.1.2 bus2=p5udm30322.1.2 switch=n enabled=y phases=2 Linecode=1P_UG_AL_1/0_Brenau_0_416_0_2_2_2_2

New Line.l(r:p5udm30320-p5udt10857lv) Units=km Length=0.009803030000000003 bus1=p5udt10857lv.1.2 bus2=p5udm30320.1.2 switch=n enabled=y phases=2 Linecode=1P_UG_AL_4/0_Sweetbriar_0_416_0_2_2_2_2

New Line.l(r:p5udm30321-p5ulv37550) Units=km Length=0.0132622 bus1=p5udm30321.1.2 bus2=p5ulv37550.1.2 switch=n enabled=y phases=2 Linecode=1P_UG_AL_1/0_Brenau_0_416_0_2_2_2_2

New Line.l(r:p5udm30319-p5ulv22500) Units=km Length=0.0164166 bus1=p5udm30319.1.2 bus2=p5ulv22500.1.2 switch=n enabled=y phases=2 Linecode=1P_UG_AL_1/0_Brenau_0_416_0_2_2_2_2

New Line.l(r:p5udm30319-p5udm30321) Units=km Length=0.00979423 bus1=p5udm30321.1.2 bus2=p5udm30319.1.2 switch=n enabled=y phases=2 Linecode=1P_UG_AL_1/0_Brenau_0_416_0_2_2_2_2

New Line.l(r:p5udm30321-p5udt10857lv) Units=km Length=0.00978948 bus1=p5udt10857lv.1.2 bus2=p5udm30321.1.2 switch=n enabled=y phases=2 Linecode=1P_UG_AL_4/0_Sweetbriar_0_416_0_2_2_2_2

New Line.l(r:p5udt10858lv-p5ulv55990) Units=km Length=0.0325565 bus1=p5udt10858lv.1.2 bus2=p5ulv55990.1.2 switch=n enabled=y phases=2 Linecode=1P_UG_AL_1/0_Brenau_0_416_0_2_2_2_2

New Line.l(r:p5udm30326-p5ulv22501) Units=km Length=0.0324548 bus1=p5udm30326.1.2 bus2=p5ulv22501.1.2 switch=n enabled=y phases=2 Linecode=1P_UG_AL_1/0_Brenau_0_416_0_2_2_2_2

New Line.l(r:p5udm30327-p5ulv31493) Units=km Length=0.0253599 bus1=p5udm30327.1.2 bus2=p5ulv31493.1.2 switch=n enabled=y phases=2 Linecode=1P_UG_AL_1/0_Brenau_0_416_0_2_2_2_2

New Line.l(r:p5udm30327-p5ulv41416) Units=km Length=0.0143779 bus1=p5udm30327.1.2 bus2=p5ulv41416.1.2 switch=n enabled=y phases=2 Linecode=1P_UG_AL_1/0_Brenau_0_416_0_2_2_2_2

New Line.l(r:p5udm30326-p5udm30327) Units=km Length=0.009803030000000003 bus1=p5udm30326.1.2 bus2=p5udm30327.1.2 switch=n enabled=y phases=2 Linecode=1P_UG_AL_4/0_Sweetbriar_0_416_0_2_2_2_2

New Line.l(r:p5udm30326-p5udt10858lv) Units=km Length=0.00979423 bus1=p5udt10858lv.1.2 bus2=p5udm30326.1.2 switch=n enabled=y phases=2 Linecode=1P_UG_AL_4/0_Sweetbriar_0_416_0_2_2_2_2

New Line.l(r:p5udm30328-p5ulv32565) Units=km Length=0.01002 bus1=p5udm30328.1.2 bus2=p5ulv32565.1.2 switch=n enabled=y phases=2 Linecode=1P_UG_AL_1/0_Brenau_0_416_0_2_2_2_2

New Line.l(r:p5udm30328-p5ulv45933) Units=km Length=0.0147578 bus1=p5udm30328.1.2 bus2=p5ulv45933.1.2 switch=n enabled=y phases=2 Linecode=1P_UG_AL_1/0_Brenau_0_416_0_2_2_2_2

New Line.l(r:p5udm30328-p5udt10858lv) Units=km Length=0.00978948 bus1=p5udt10858lv.1.2 bus2=p5udm30328.1.2 switch=n enabled=y phases=2 Linecode=1P_UG_AL_4/0_Sweetbriar_0_416_0_2_2_2_2

New Line.l(r:p5udt10862lv-p5ulv22505) Units=km Length=0.00970001 bus1=p5udt10862lv.1.2 bus2=p5ulv22505.1.2 switch=n enabled=y phases=2 Linecode=1P_UG_AL_1/0_Brenau_0_416_0_2_2_2_2

New Line.l(r:p5udt10862lv-p5ulv71161) Units=km Length=0.010492 bus1=p5udt10862lv.1.2 bus2=p5ulv71161.1.2 switch=n enabled=y phases=2 Linecode=1P_UG_AL_1/0_Brenau_0_416_0_2_2_2_2

New Line.l(r:p5udm30351-p5ulv24764) Units=km Length=0.0092532 bus1=p5udm30351.1.2 bus2=p5ulv24764.1.2 switch=n enabled=y phases=2 Linecode=1P_UG_AL_1/0_Brenau_0_416_0_2_2_2_2

New Line.l(r:p5udm30351-p5udt10862lv) Units=km Length=0.00960941 bus1=p5udt10862lv.1.2 bus2=p5udm30351.1.2 switch=n enabled=y phases=2 Linecode=1P_UG_AL_1/0_Brenau_0_416_0_2_2_2_2

New Line.l(r:p5udt11361lv-p5ulv23070) Units=km Length=0.013691000000000002 bus1=p5udt11361lv.1.2 bus2=p5ulv23070.1.2 switch=n enabled=y phases=2 Linecode=1P_UG_AL_1/0_Brenau_0_416_0_2_2_2_2

New Line.l(r:p5udm31940-p5ulv47008) Units=km Length=0.03400910000000001 bus1=p5udm31940.1.2 bus2=p5ulv47008.1.2 switch=n enabled=y phases=2 Linecode=1P_UG_AL_1/0_Brenau_0_416_0_2_2_2_2

New Line.l(r:p5udm31940-p5udt11361lv) Units=km Length=0.0293915 bus1=p5udt11361lv.1.2 bus2=p5udm31940.1.2 switch=n enabled=y phases=2 Linecode=1P_UG_AL_1/0_Brenau_0_416_0_2_2_2_2

New Line.l(r:p5udm31941-p5ulv51505) Units=km Length=0.019375 bus1=p5udm31941.1.2 bus2=p5ulv51505.1.2 switch=n enabled=y phases=2 Linecode=1P_UG_AL_1/0_Brenau_0_416_0_2_2_2_2

New Line.l(r:p5udm31939-p5ulv45932) Units=km Length=0.0134464 bus1=p5udm31939.1.2 bus2=p5ulv45932.1.2 switch=n enabled=y phases=2 Linecode=1P_UG_AL_1/0_Brenau_0_416_0_2_2_2_2

New Line.l(r:p5udm31939-p5udm31941) Units=km Length=0.00978948 bus1=p5udm31941.1.2 bus2=p5udm31939.1.2 switch=n enabled=y phases=2 Linecode=1P_UG_AL_1/0_Brenau_0_416_0_2_2_2_2

New Line.l(r:p5udm31941-p5udt11361lv) Units=km Length=0.009803030000000003 bus1=p5udt11361lv.1.2 bus2=p5udm31941.1.2 switch=n enabled=y phases=2 Linecode=1P_UG_AL_2/0_Converse_0_416_0_2_2_2_2

New Line.l(r:p5udm31943-p5ulv28170) Units=km Length=0.0116521 bus1=p5udm31943.1.2 bus2=p5ulv28170.1.2 switch=n enabled=y phases=2 Linecode=1P_UG_AL_1/0_Brenau_0_416_0_2_2_2_2

New Line.l(r:p5udm31943-p5ulv63391) Units=km Length=0.0167859 bus1=p5udm31943.1.2 bus2=p5ulv63391.1.2 switch=n enabled=y phases=2 Linecode=1P_UG_AL_1/0_Brenau_0_416_0_2_2_2_2

New Line.l(r:p5udm31943-p5udt11362lv) Units=km Length=0.038663600000000006 bus1=p5udt11362lv.1.2 bus2=p5udm31943.1.2 switch=n enabled=y phases=2 Linecode=1P_UG_AL_2/0_Converse_0_416_0_2_2_2_2

New Line.l(r:p5udm31944-p5ulv48084) Units=km Length=0.0142585 bus1=p5udm31944.1.2 bus2=p5ulv48084.1.2 switch=n enabled=y phases=2 Linecode=1P_UG_AL_1/0_Brenau_0_416_0_2_2_2_2

New Line.l(r:p5udm31942-p5ulv23071) Units=km Length=0.0158281 bus1=p5udm31942.1.2 bus2=p5ulv23071.1.2 switch=n enabled=y phases=2 Linecode=1P_UG_AL_1/0_Brenau_0_416_0_2_2_2_2

New Line.l(r:p5udm31942-p5ulv73932) Units=km Length=0.01614 bus1=p5udm31942.1.2 bus2=p5ulv73932.1.2 switch=n enabled=y phases=2 Linecode=1P_UG_AL_1/0_Brenau_0_416_0_2_2_2_2

New Line.l(r:p5udm31942-p5udm31944) Units=km Length=0.0193298 bus1=p5udm31944.1.2 bus2=p5udm31942.1.2 switch=n enabled=y phases=2 Linecode=1P_UG_AL_4/0_Sweetbriar_0_416_0_2_2_2_2

New Line.l(r:p5udm31945-p5ulv53177) Units=km Length=0.0119281 bus1=p5udm31945.1.2 bus2=p5ulv53177.1.2 switch=n enabled=y phases=2 Linecode=1P_UG_AL_1/0_Brenau_0_416_0_2_2_2_2

New Line.l(r:p5udm31944-p5udm31945) Units=km Length=0.00966488 bus1=p5udm31944.1.2 bus2=p5udm31945.1.2 switch=n enabled=y phases=2 Linecode=1P_UG_AL_1/0_Brenau_0_416_0_2_2_2_2

New Line.l(r:p5udm31944-p5udt11362lv) Units=km Length=0.00966488 bus1=p5udt11362lv.1.2 bus2=p5udm31944.1.2 switch=n enabled=y phases=2 Linecode=1P_UG_AL_4/0_Sweetbriar_0_416_0_2_2_2_2

New Line.l(r:p5udt11363lv-p5ulv23073) Units=km Length=0.010224 bus1=p5udt11363lv.1.2 bus2=p5ulv23073.1.2 switch=n enabled=y phases=2 Linecode=1P_UG_AL_1/0_Brenau_0_416_0_2_2_2_2

New Line.l(r:p5udt11363lv-p5ulv45937) Units=km Length=0.0170683 bus1=p5udt11363lv.1.2 bus2=p5ulv45937.1.2 switch=n enabled=y phases=2 Linecode=1P_UG_AL_1/0_Brenau_0_416_0_2_2_2_2

New Line.l(r:p5udm33320-p5ulv23616) Units=km Length=0.0159483 bus1=p5udm33320.1.2 bus2=p5ulv23616.1.2 switch=n enabled=y phases=2 Linecode=1P_UG_AL_1/0_Brenau_0_416_0_2_2_2_2

New Line.l(r:p5udm33320-p5udt11807lv) Units=km Length=0.00950773 bus1=p5udt11807lv.1.2 bus2=p5udm33320.1.2 switch=n enabled=y phases=2 Linecode=1P_UG_AL_1/0_Brenau_0_416_0_2_2_2_2

New Line.l(r:p5udm33321-p5ulv76713) Units=km Length=0.0155919 bus1=p5udm33321.1.2 bus2=p5ulv76713.1.2 switch=n enabled=y phases=2 Linecode=1P_UG_AL_1/0_Brenau_0_416_0_2_2_2_2

New Line.l(r:p5udm33321-p5udt11807lv) Units=km Length=0.00951248 bus1=p5udt11807lv.1.2 bus2=p5udm33321.1.2 switch=n enabled=y phases=2 Linecode=1P_UG_AL_1/0_Brenau_0_416_0_2_2_2_2

New Line.l(r:p5udt11809lv-p5ulv23619) Units=km Length=0.00381687 bus1=p5udt11809lv.1.2 bus2=p5ulv23619.1.2 switch=n enabled=y phases=2 Linecode=1P_OH_AL_4_Periwinkle_0_416_0_2_2_2_2

New Line.l(r:p5udm33329-p5ulv44770) Units=km Length=0.0133162 bus1=p5udm33329.1.2 bus2=p5ulv44770.1.2 switch=n enabled=y phases=2 Linecode=1P_OH_AL_2/0_Rucina_0_416_0_2_2_2_2

New Line.l(r:p5udm33328-p5ulv41414) Units=km Length=0.00511649 bus1=p5udm33328.1.2 bus2=p5ulv41414.1.2 switch=n enabled=y phases=2 Linecode=1P_OH_AL_2/0_Rucina_0_416_0_2_2_2_2

New Line.l(r:p5udm33328-p5udm33329) Units=km Length=0.0199232 bus1=p5udm33329.1.2 bus2=p5udm33328.1.2 switch=n enabled=y phases=2 Linecode=1P_OH_AL_2/0_Rucina_0_416_0_2_2_2_2

New Line.l(r:p5udm33329-p5udt11809lv) Units=km Length=0.019914400000000002 bus1=p5udt11809lv.1.2 bus2=p5udm33329.1.2 switch=n enabled=y phases=2 Linecode=1P_OH_AL_2/0_Rucina_0_416_0_2_2_2_2

New Line.l(r:p5udm33330-p5ulv50906) Units=km Length=0.012811100000000002 bus1=p5udm33330.1.2 bus2=p5ulv50906.1.2 switch=n enabled=y phases=2 Linecode=1P_OH_AL_2/0_Rucina_0_416_0_2_2_2_2

New Line.l(r:p5udm33331-p5ulv53175) Units=km Length=0.0122448 bus1=p5udm33331.1.2 bus2=p5ulv53175.1.2 switch=n enabled=y phases=2 Linecode=1P_OH_AL_2/0_Rucina_0_416_0_2_2_2_2

New Line.l(r:p5udm33330-p5udm33331) Units=km Length=0.0157471 bus1=p5udm33330.1.2 bus2=p5udm33331.1.2 switch=n enabled=y phases=2 Linecode=1P_OH_AL_2/0_Rucina_0_416_0_2_2_2_2

New Line.l(r:p5udm33330-p5udt11809lv) Units=km Length=0.0199232 bus1=p5udt11809lv.1.2 bus2=p5udm33330.1.2 switch=n enabled=y phases=2 Linecode=1P_OH_AL_2/0_Rucina_0_416_0_2_2_2_2

New Line.l(r:p5udt11810lv-p5ulv23620) Units=km Length=0.0343727 bus1=p5udt11810lv.1.2 bus2=p5ulv23620.1.2 switch=n enabled=y phases=2 Linecode=1P_OH_AL_4/0_Zuzara_0_416_0_2_2_2_2

New Line.l(r:p5udt11810lv-p5ulv60559) Units=km Length=0.015165800000000002 bus1=p5udt11810lv.1.2 bus2=p5ulv60559.1.2 switch=n enabled=y phases=2 Linecode=1P_OH_AL_2/0_Rucina_0_416_0_2_2_2_2

New Line.l(r:p5udt11811lv-p5ulv50909) Units=km Length=0.0155094 bus1=p5udt11811lv.1.2 bus2=p5ulv50909.1.2 switch=n enabled=y phases=2 Linecode=1P_UG_AL_1/0_Brenau_0_416_0_2_2_2_2
