New Line.l(r:p4udm88-p4ulv41) Units=km Length=0.00792463 bus1=p4udm88.1.2 bus2=p4ulv41.1.2 switch=n enabled=y phases=2 Linecode=1P_OH_AL_2/0_Rucina_0_416_0_2_2_2_2

New Line.l(r:p4udm88-p4ulv2545) Units=km Length=0.0154553 bus1=p4udm88.1.2 bus2=p4ulv2545.1.2 switch=n enabled=y phases=2 Linecode=1P_OH_AL_2/0_Rucina_0_416_0_2_2_2_2

New Line.l(r:p4udm88-p4udt40lv) Units=km Length=0.0193815 bus1=p4udt40lv.1.2 bus2=p4udm88.1.2 switch=n enabled=y phases=2 Linecode=1P_OH_AL_2/0_Rucina_0_416_0_2_2_2_2

New Line.l(r:p4udm90-p4ulv40720) Units=km Length=0.0254995 bus1=p4udm90.1.2 bus2=p4ulv40720.1.2 switch=n enabled=y phases=2 Linecode=1P_OH_AL_2/0_Rucina_0_416_0_2_2_2_2

New Line.l(r:p4udm90-p4udt40lv) Units=km Length=0.0193724 bus1=p4udt40lv.1.2 bus2=p4udm90.1.2 switch=n enabled=y phases=2 Linecode=1P_OH_AL_2/0_Rucina_0_416_0_2_2_2_2

New Line.l(r:p4udt130lv-p4ulv136) Units=km Length=0.0225421 bus1=p4udt130lv.1.2 bus2=p4ulv136.1.2 switch=n enabled=y phases=2 Linecode=1P_UG_AL_2/0_Converse_0_416_0_2_2_2_2

New Line.l(r:p4udt473lv-p4ulv479) Units=km Length=0.02793 bus1=p4udt473lv.1.2 bus2=p4ulv479.1.2 switch=n enabled=y phases=2 Linecode=1P_OH_AL_4/0_Zuzara_0_416_0_2_2_2_2

New Line.l(r:p4udt562lv-p4ulv572) Units=km Length=0.031371 bus1=p4udt562lv.1.2 bus2=p4ulv572.1.2 switch=n enabled=y phases=2 Linecode=1P_OH_AL_4/0_Zuzara_0_416_0_2_2_2_2

New Line.l(r:p4udt562lv-p4ulv32820) Units=km Length=0.0307708 bus1=p4udt562lv.1.2 bus2=p4ulv32820.1.2 switch=n enabled=y phases=2 Linecode=1P_OH_AL_4/0_Zuzara_0_416_0_2_2_2_2

New Line.l(r:p4udt563lv-p4ulv573) Units=km Length=0.017987 bus1=p4udt563lv.1.2 bus2=p4ulv573.1.2 switch=n enabled=y phases=2 Linecode=1P_OH_AL_2/0_Rucina_0_416_0_2_2_2_2

New Line.l(r:p4udt563lv-p4ulv8124) Units=km Length=0.017987 bus1=p4udt563lv.1.2 bus2=p4ulv8124.1.2 switch=n enabled=y phases=2 Linecode=1P_OH_AL_2/0_Rucina_0_416_0_2_2_2_2

New Line.l(r:p4udm1522-p4ulv575) Units=km Length=0.0259918 bus1=p4udm1522.1.2 bus2=p4ulv575.1.2 switch=n enabled=y phases=2 Linecode=1P_OH_AL_2/0_Rucina_0_416_0_2_2_2_2

New Line.l(r:p4udm1522-p4udt565lv) Units=km Length=0.0537015 bus1=p4udt565lv.1.2 bus2=p4udm1522.1.2 switch=n enabled=y phases=2 Linecode=1P_OH_AL_4/0_Zuzara_0_416_0_2_2_2_2

New Line.l(r:p4udm1523-p4ulv13696) Units=km Length=0.0323714 bus1=p4udm1523.1.2 bus2=p4ulv13696.1.2 switch=n enabled=y phases=2 Linecode=1P_OH_AL_4/0_Zuzara_0_416_0_2_2_2_2

New Line.l(r:p4udm1523-p4udt565lv) Units=km Length=0.0238436 bus1=p4udt565lv.1.2 bus2=p4udm1523.1.2 switch=n enabled=y phases=2 Linecode=1P_OH_AL_2/0_Rucina_0_416_0_2_2_2_2

New Line.l(r:p4udt881lv-p4ulv900) Units=km Length=0.026484100000000003 bus1=p4udt881lv.1.2 bus2=p4ulv900.1.2 switch=n enabled=y phases=2 Linecode=1P_OH_AL_2/0_Rucina_0_416_0_2_2_2_2

New Line.l(r:p4udt972lv-p4ulv994) Units=km Length=0.0128633 bus1=p4udt972lv.1.2 bus2=p4ulv994.1.2 switch=n enabled=y phases=2 Linecode=1P_OH_AL_2/0_Rucina_0_416_0_2_2_2_2

New Line.l(r:p4udt1277lv-p4ulv12726) Units=km Length=0.0302064 bus1=p4udt1277lv.1.2 bus2=p4ulv12726.1.2 switch=n enabled=y phases=2 Linecode=1P_OH_AL_4/0_Zuzara_0_416_0_2_2_2_2

New Line.l(r:p4udm3426-p4ulv1318) Units=km Length=0.0173081 bus1=p4udm3426.1.2 bus2=p4ulv1318.1.2 switch=n enabled=y phases=2 Linecode=1P_OH_AL_2/0_Rucina_0_416_0_2_2_2_2

New Line.l(r:p4udm3426-p4ulv2145) Units=km Length=0.0253936 bus1=p4udm3426.1.2 bus2=p4ulv2145.1.2 switch=n enabled=y phases=2 Linecode=1P_OH_AL_2/0_Rucina_0_416_0_2_2_2_2

New Line.l(r:p4udm3426-p4udt1277lv) Units=km Length=0.0129714 bus1=p4udt1277lv.1.2 bus2=p4udm3426.1.2 switch=n enabled=y phases=2 Linecode=1P_OH_AL_2/0_Rucina_0_416_0_2_2_2_2

New Line.l(r:p4udt1284lv-p4ulv39883) Units=km Length=0.0258894 bus1=p4udt1284lv.1.2 bus2=p4ulv39883.1.2 switch=n enabled=y phases=2 Linecode=1P_OH_AL_2/0_Rucina_0_416_0_2_2_2_2

New Line.l(r:p4udm3441-p4ulv31923) Units=km Length=0.0386718 bus1=p4udm3441.1.2 bus2=p4ulv31923.1.2 switch=n enabled=y phases=2 Linecode=1P_OH_AL_4/0_Zuzara_0_416_0_2_2_2_2

New Line.l(r:p4udm3441-p4ulv36537) Units=km Length=0.0308388 bus1=p4udm3441.1.2 bus2=p4ulv36537.1.2 switch=n enabled=y phases=2 Linecode=1P_OH_AL_4/0_Zuzara_0_416_0_2_2_2_2

New Line.l(r:p4udm3445-p4ulv41587) Units=km Length=0.0392303 bus1=p4udm3445.1.2 bus2=p4ulv41587.1.2 switch=n enabled=y phases=2 Linecode=1P_OH_AL_4/0_Zuzara_0_416_0_2_2_2_2

New Line.l(r:p4udm3441-p4udm3445) Units=km Length=0.0169002 bus1=p4udm3441.1.2 bus2=p4udm3445.1.2 switch=n enabled=y phases=2 Linecode=1P_OH_AL_2/0_Rucina_0_416_0_2_2_2_2

New Line.l(r:p4udm3441-p4udt1284lv) Units=km Length=0.027608400000000005 bus1=p4udt1284lv.1.2 bus2=p4udm3441.1.2 switch=n enabled=y phases=2 Linecode=1P_OH_AL_4/0_Zuzara_0_416_0_2_2_2_2

New Line.l(r:p4udm3442-p4ulv32337) Units=km Length=0.0285891 bus1=p4udm3442.1.2 bus2=p4ulv32337.1.2 switch=n enabled=y phases=2 Linecode=1P_OH_AL_4/0_Zuzara_0_416_0_2_2_2_2

New Line.l(r:p4udm3440-p4ulv1326) Units=km Length=0.0177669 bus1=p4udm3440.1.2 bus2=p4ulv1326.1.2 switch=n enabled=y phases=2 Linecode=1P_OH_AL_2/0_Rucina_0_416_0_2_2_2_2

New Line.l(r:p4udm3440-p4udm3442) Units=km Length=0.0152775 bus1=p4udm3442.1.2 bus2=p4udm3440.1.2 switch=n enabled=y phases=2 Linecode=1P_OH_AL_2/0_Rucina_0_416_0_2_2_2_2

New Line.l(r:p4udm3442-p4udt1284lv) Units=km Length=0.0163753 bus1=p4udt1284lv.1.2 bus2=p4udm3442.1.2 switch=n enabled=y phases=2 Linecode=1P_OH_AL_2/0_Rucina_0_416_0_2_2_2_2

New Line.l(r:p4udt1689lv-p4ulv1759) Units=km Length=0.03819000000000001 bus1=p4udt1689lv.1.2 bus2=p4ulv1759.1.2 switch=n enabled=y phases=2 Linecode=1P_OH_AL_4/0_Zuzara_0_416_0_2_2_2_2

New Line.l(r:p4udt1777lv-p4ulv1849) Units=km Length=0.0323545 bus1=p4udt1777lv.1.2 bus2=p4ulv1849.1.2 switch=n enabled=y phases=2 Linecode=1P_OH_AL_4/0_Zuzara_0_416_0_2_2_2_2

New Line.l(r:p4udm4789-p4ulv24772) Units=km Length=0.0447643 bus1=p4udm4789.1.2 bus2=p4ulv24772.1.2 switch=n enabled=y phases=2 Linecode=1P_OH_AL_4/0_Zuzara_0_416_0_2_2_2_2

New Line.l(r:p4udm4789-p4udt1777lv) Units=km Length=0.0195186 bus1=p4udt1777lv.1.2 bus2=p4udm4789.1.2 switch=n enabled=y phases=2 Linecode=1P_OH_AL_2/0_Rucina_0_416_0_2_2_2_2

New Line.l(r:p4udm4790-p4ulv1850) Units=km Length=0.0441045 bus1=p4udm4790.1.2 bus2=p4ulv1850.1.2 switch=n enabled=y phases=2 Linecode=1P_OH_AL_4/0_Zuzara_0_416_0_2_2_2_2

New Line.l(r:p4udm4790-p4udt1778lv) Units=km Length=0.0104768 bus1=p4udt1778lv.1.2 bus2=p4udm4790.1.2 switch=n enabled=y phases=2 Linecode=1P_OH_AL_2/0_Rucina_0_416_0_2_2_2_2

New Line.l(r:p4udm4791-p4ulv17628) Units=km Length=0.028098 bus1=p4udm4791.1.2 bus2=p4ulv17628.1.2 switch=n enabled=y phases=2 Linecode=1P_OH_AL_4/0_Zuzara_0_416_0_2_2_2_2

New Line.l(r:p4udm4791-p4udt1778lv) Units=km Length=0.0104798 bus1=p4udt1778lv.1.2 bus2=p4udm4791.1.2 switch=n enabled=y phases=2 Linecode=1P_OH_AL_2/0_Rucina_0_416_0_2_2_2_2

New Line.l(r:p4udt1785lv-p4ulv1857) Units=km Length=0.0613872 bus1=p4udt1785lv.1.2 bus2=p4ulv1857.1.2 switch=n enabled=y phases=2 Linecode=1P_OH_AL_4/0_Zuzara_0_416_0_2_2_2_2

New Line.l(r:p4udt1785lv-p4ulv11520) Units=km Length=0.09092520000000001 bus1=p4udt1785lv.1.2 bus2=p4ulv11520.1.2 switch=n enabled=y phases=2 Linecode=1P_OH_AL_4/0_Zuzara_0_416_0_2_2_2_2

New Line.l(r:p4udt1785lv-p4ulv14160) Units=km Length=0.00930088 bus1=p4udt1785lv.1.2 bus2=p4ulv14160.1.2 switch=n enabled=y phases=2 Linecode=1P_OH_AL_2/0_Rucina_0_416_0_2_2_2_2

New Line.l(r:p4udt1785lv-p4ulv24347) Units=km Length=0.058346300000000004 bus1=p4udt1785lv.1.2 bus2=p4ulv24347.1.2 switch=n enabled=y phases=2 Linecode=1P_OH_AL_4/0_Zuzara_0_416_0_2_2_2_2

New Line.l(r:p4udt1785lv-p4ulv32822) Units=km Length=0.105038 bus1=p4udt1785lv.1.2 bus2=p4ulv32822.1.2 switch=n enabled=y phases=2 Linecode=1P_OH_AL_4/0_Zuzara_0_416_0_2_2_2_2

New Line.l(r:p4udt1785lv-p4ulv34953) Units=km Length=0.0184201 bus1=p4udt1785lv.1.2 bus2=p4ulv34953.1.2 switch=n enabled=y phases=2 Linecode=1P_OH_AL_2/0_Rucina_0_416_0_2_2_2_2

New Line.l(r:p4udt2054lv-p4ulv2151) Units=km Length=0.0240455 bus1=p4udt2054lv.1.2 bus2=p4ulv2151.1.2 switch=n enabled=y phases=2 Linecode=1P_OH_AL_2/0_Rucina_0_416_0_2_2_2_2

New Line.l(r:p4udm5498-p4ulv17108) Units=km Length=0.0364121 bus1=p4udm5498.1.2 bus2=p4ulv17108.1.2 switch=n enabled=y phases=2 Linecode=1P_OH_AL_4/0_Zuzara_0_416_0_2_2_2_2

New Line.l(r:p4udm5498-p4udt2054lv) Units=km Length=0.00610574 bus1=p4udt2054lv.1.2 bus2=p4udm5498.1.2 switch=n enabled=y phases=2 Linecode=1P_OH_AL_2/0_Rucina_0_416_0_2_2_2_2

New Line.l(r:p4udm5499-p4ulv36113) Units=km Length=0.03713110000000001 bus1=p4udm5499.1.2 bus2=p4ulv36113.1.2 switch=n enabled=y phases=2 Linecode=1P_OH_AL_4/0_Zuzara_0_416_0_2_2_2_2

New Line.l(r:p4udm5499-p4udt2054lv) Units=km Length=0.0069151 bus1=p4udt2054lv.1.2 bus2=p4udm5499.1.2 switch=n enabled=y phases=2 Linecode=1P_OH_AL_2/0_Rucina_0_416_0_2_2_2_2

New Line.l(r:p4udt2141lv-p4ulv36622) Units=km Length=0.0751056 bus1=p4udt2141lv.1.2 bus2=p4ulv36622.1.2 switch=n enabled=y phases=2 Linecode=1P_OH_AL_4/0_Zuzara_0_416_0_2_2_2_2

New Line.l(r:p4udm5719-p4ulv2242) Units=km Length=0.051363700000000005 bus1=p4udm5719.1.2 bus2=p4ulv2242.1.2 switch=n enabled=y phases=2 Linecode=1P_OH_AL_4/0_Zuzara_0_416_0_2_2_2_2

New Line.l(r:p4udm5719-p4udt2141lv) Units=km Length=0.0182609 bus1=p4udt2141lv.1.2 bus2=p4udm5719.1.2 switch=n enabled=y phases=2 Linecode=1P_OH_AL_2/0_Rucina_0_416_0_2_2_2_2

New Line.l(r:p4udt2510lv-p4ulv37038) Units=km Length=0.109139 bus1=p4udt2510lv.1.2 bus2=p4ulv37038.1.2 switch=n enabled=y phases=2 Linecode=1P_OH_AL_4/0_Zuzara_0_416_0_2_2_2_2

New Line.l(r:p4udm6660-p4ulv2647) Units=km Length=0.0928661 bus1=p4udm6660.1.2 bus2=p4ulv2647.1.2 switch=n enabled=y phases=2 Linecode=1P_OH_AL_4/0_Zuzara_0_416_0_2_2_2_2

New Line.l(r:p4udm6660-p4udt2510lv) Units=km Length=0.0194056 bus1=p4udt2510lv.1.2 bus2=p4udm6660.1.2 switch=n enabled=y phases=2 Linecode=1P_OH_AL_2/0_Rucina_0_416_0_2_2_2_2

New Line.l(r:p4udm6661-p4ulv27332) Units=km Length=0.0311818 bus1=p4udm6661.1.2 bus2=p4ulv27332.1.2 switch=n enabled=y phases=2 Linecode=1P_OH_AL_4/0_Zuzara_0_416_0_2_2_2_2

New Line.l(r:p4udm6661-p4udt2510lv) Units=km Length=0.0194056 bus1=p4udt2510lv.1.2 bus2=p4udm6661.1.2 switch=n enabled=y phases=2 Linecode=1P_OH_AL_2/0_Rucina_0_416_0_2_2_2_2

New Line.l(r:p4udt2819lv-p4ulv2999) Units=km Length=0.0206946 bus1=p4udt2819lv.1.2 bus2=p4ulv2999.1.2 switch=n enabled=y phases=2 Linecode=1P_OH_AL_2/0_Rucina_0_416_0_2_2_2_2

New Line.l(r:p4udt2819lv-p4ulv13186) Units=km Length=0.0429206 bus1=p4udt2819lv.1.2 bus2=p4ulv13186.1.2 switch=n enabled=y phases=2 Linecode=1P_OH_AL_4/0_Zuzara_0_416_0_2_2_2_2

New Line.l(r:p4udt2819lv-p4ulv25080) Units=km Length=0.0341268 bus1=p4udt2819lv.1.2 bus2=p4ulv25080.1.2 switch=n enabled=y phases=2 Linecode=1P_OH_AL_4/0_Zuzara_0_416_0_2_2_2_2

New Line.l(r:p4udt2819lv-p4ulv41149) Units=km Length=0.0283862 bus1=p4udt2819lv.1.2 bus2=p4ulv41149.1.2 switch=n enabled=y phases=2 Linecode=1P_OH_AL_4/0_Zuzara_0_416_0_2_2_2_2

New Line.l(r:p4udm7478-p4ulv21372) Units=km Length=0.0424456 bus1=p4udm7478.1.2 bus2=p4ulv21372.1.2 switch=n enabled=y phases=2 Linecode=1P_OH_AL_4/0_Zuzara_0_416_0_2_2_2_2

New Line.l(r:p4udm7477-p4ulv20079) Units=km Length=0.0344775 bus1=p4udm7477.1.2 bus2=p4ulv20079.1.2 switch=n enabled=y phases=2 Linecode=1P_OH_AL_4/0_Zuzara_0_416_0_2_2_2_2

New Line.l(r:p4udm7477-p4udm7478) Units=km Length=0.017418500000000003 bus1=p4udm7478.1.2 bus2=p4udm7477.1.2 switch=n enabled=y phases=2 Linecode=1P_OH_AL_2/0_Rucina_0_416_0_2_2_2_2

New Line.l(r:p4udm7478-p4udt2819lv) Units=km Length=0.00700341 bus1=p4udt2819lv.1.2 bus2=p4udm7478.1.2 switch=n enabled=y phases=2 Linecode=1P_OH_AL_2/0_Rucina_0_416_0_2_2_2_2

New Line.l(r:p4udt3263lv-p4ulv3486) Units=km Length=0.0109113 bus1=p4udt3263lv.1.2 bus2=p4ulv3486.1.2 switch=n enabled=y phases=2 Linecode=1P_OH_AL_2/0_Rucina_0_416_0_2_2_2_2

New Line.l(r:p4udt3263lv-p4ulv4344) Units=km Length=0.131845 bus1=p4udt3263lv.1.2 bus2=p4ulv4344.1.2 switch=n enabled=y phases=2 Linecode=1P_OH_AL_4/0_Zuzara_0_416_0_2_2_2_2

New Line.l(r:p4udt3267lv-p4ulv3491) Units=km Length=0.0602098 bus1=p4udt3267lv.1.2 bus2=p4ulv3491.1.2 switch=n enabled=y phases=2 Linecode=1P_OH_AL_4/0_Zuzara_0_416_0_2_2_2_2

New Line.l(r:p4udt3267lv-p4ulv39128) Units=km Length=0.0602098 bus1=p4udt3267lv.1.2 bus2=p4ulv39128.1.2 switch=n enabled=y phases=2 Linecode=1P_OH_AL_4/0_Zuzara_0_416_0_2_2_2_2

New Line.l(r:p4udt3268lv-p4ulv3492) Units=km Length=0.0890379 bus1=p4udt3268lv.1.2 bus2=p4ulv3492.1.2 switch=n enabled=y phases=2 Linecode=1P_OH_AL_4/0_Zuzara_0_416_0_2_2_2_2

New Line.l(r:p4udt3268lv-p4ulv3951) Units=km Length=0.06496440000000002 bus1=p4udt3268lv.1.2 bus2=p4ulv3951.1.2 switch=n enabled=y phases=2 Linecode=1P_OH_AL_4/0_Zuzara_0_416_0_2_2_2_2

New Line.l(r:p4udt3268lv-p4ulv13693) Units=km Length=0.0525901 bus1=p4udt3268lv.1.2 bus2=p4ulv13693.1.2 switch=n enabled=y phases=2 Linecode=1P_OH_AL_4/0_Zuzara_0_416_0_2_2_2_2

New Line.l(r:p4udt3268lv-p4ulv18062) Units=km Length=0.0326702 bus1=p4udt3268lv.1.2 bus2=p4ulv18062.1.2 switch=n enabled=y phases=2 Linecode=1P_OH_AL_4/0_Zuzara_0_416_0_2_2_2_2

New Line.l(r:p4udm9595-p4ulv3948) Units=km Length=0.014760400000000002 bus1=p4udm9595.1.2 bus2=p4ulv3948.1.2 switch=n enabled=y phases=2 Linecode=1P_OH_AL_2/0_Rucina_0_416_0_2_2_2_2

New Line.l(r:p4udm9595-p4udt3654lv) Units=km Length=0.0166447 bus1=p4udt3654lv.1.2 bus2=p4udm9595.1.2 switch=n enabled=y phases=2 Linecode=1P_OH_AL_2/0_Rucina_0_416_0_2_2_2_2

New Line.l(r:p4udm9596-p4ulv27325) Units=km Length=0.0208181 bus1=p4udm9596.1.2 bus2=p4ulv27325.1.2 switch=n enabled=y phases=2 Linecode=1P_OH_AL_2/0_Rucina_0_416_0_2_2_2_2

New Line.l(r:p4udm9596-p4udt3654lv) Units=km Length=0.0377896 bus1=p4udt3654lv.1.2 bus2=p4udm9596.1.2 switch=n enabled=y phases=2 Linecode=1P_OH_AL_4/0_Zuzara_0_416_0_2_2_2_2

New Line.l(r:p4udt3656lv-p4ulv3950) Units=km Length=0.04606 bus1=p4udt3656lv.1.2 bus2=p4ulv3950.1.2 switch=n enabled=y phases=2 Linecode=1P_OH_AL_4/0_Zuzara_0_416_0_2_2_2_2

New Line.l(r:p4udt3656lv-p4ulv16753) Units=km Length=0.144807 bus1=p4udt3656lv.1.2 bus2=p4ulv16753.1.2 switch=n enabled=y phases=2 Linecode=1P_OH_AL_4/0_Zuzara_0_416_0_2_2_2_2

New Line.l(r:p4udm9601-p4ulv35377) Units=km Length=0.0259124 bus1=p4udm9601.1.2 bus2=p4ulv35377.1.2 switch=n enabled=y phases=2 Linecode=1P_OH_AL_2/0_Rucina_0_416_0_2_2_2_2

New Line.l(r:p4udm9601-p4udt3656lv) Units=km Length=0.0499992 bus1=p4udt3656lv.1.2 bus2=p4udm9601.1.2 switch=n enabled=y phases=2 Linecode=1P_OH_AL_4/0_Zuzara_0_416_0_2_2_2_2

New Line.l(r:p4udt3931lv-p4ulv14485) Units=km Length=0.00486812 bus1=p4udt3931lv.1.2 bus2=p4ulv14485.1.2 switch=n enabled=y phases=2 Linecode=1P_OH_AL_2/0_Rucina_0_416_0_2_2_2_2

New Line.l(r:p4udm10293-p4ulv10976) Units=km Length=0.0162257 bus1=p4udm10293.1.2 bus2=p4ulv10976.1.2 switch=n enabled=y phases=2 Linecode=1P_OH_AL_2/0_Rucina_0_416_0_2_2_2_2

New Line.l(r:p4udm10293-p4ulv25505) Units=km Length=0.00382196 bus1=p4udm10293.1.2 bus2=p4ulv25505.1.2 switch=n enabled=y phases=2 Linecode=1P_OH_AL_4_Periwinkle_0_416_0_2_2_2_2

New Line.l(r:p4udm10297-p4ulv41959) Units=km Length=0.0174936 bus1=p4udm10297.1.2 bus2=p4ulv41959.1.2 switch=n enabled=y phases=2 Linecode=1P_OH_AL_2/0_Rucina_0_416_0_2_2_2_2

New Line.l(r:p4udm10293-p4udm10297) Units=km Length=0.0182966 bus1=p4udm10293.1.2 bus2=p4udm10297.1.2 switch=n enabled=y phases=2 Linecode=1P_OH_AL_2/0_Rucina_0_416_0_2_2_2_2

New Line.l(r:p4udm10293-p4udt3931lv) Units=km Length=0.0182866 bus1=p4udt3931lv.1.2 bus2=p4udm10293.1.2 switch=n enabled=y phases=2 Linecode=1P_OH_AL_2/0_Rucina_0_416_0_2_2_2_2

New Line.l(r:p4udm10296-p4ulv39439) Units=km Length=0.0145379 bus1=p4udm10296.1.2 bus2=p4ulv39439.1.2 switch=n enabled=y phases=2 Linecode=1P_OH_AL_2/0_Rucina_0_416_0_2_2_2_2

New Line.l(r:p4udm10292-p4ulv4260) Units=km Length=0.019573 bus1=p4udm10292.1.2 bus2=p4ulv4260.1.2 switch=n enabled=y phases=2 Linecode=1P_OH_AL_2/0_Rucina_0_416_0_2_2_2_2

New Line.l(r:p4udm10292-p4udm10296) Units=km Length=0.0558829 bus1=p4udm10296.1.2 bus2=p4udm10292.1.2 switch=n enabled=y phases=2 Linecode=1P_OH_AL_4/0_Zuzara_0_416_0_2_2_2_2

New Line.l(r:p4udm10296-p4udt3931lv) Units=km Length=0.0167485 bus1=p4udt3931lv.1.2 bus2=p4udm10296.1.2 switch=n enabled=y phases=2 Linecode=1P_OH_AL_2/0_Rucina_0_416_0_2_2_2_2

New Line.l(r:p4udt3932lv-p4ulv10977) Units=km Length=0.0596636 bus1=p4udt3932lv.1.2 bus2=p4ulv10977.1.2 switch=n enabled=y phases=2 Linecode=1P_OH_AL_4/0_Zuzara_0_416_0_2_2_2_2

New Line.l(r:p4udt3932lv-p4ulv32718) Units=km Length=0.0502708 bus1=p4udt3932lv.1.2 bus2=p4ulv32718.1.2 switch=n enabled=y phases=2 Linecode=1P_OH_AL_4/0_Zuzara_0_416_0_2_2_2_2

New Line.l(r:p4udm10298-p4ulv4261) Units=km Length=0.0695172 bus1=p4udm10298.1.2 bus2=p4ulv4261.1.2 switch=n enabled=y phases=2 Linecode=1P_OH_AL_4/0_Zuzara_0_416_0_2_2_2_2

New Line.l(r:p4udm10298-p4ulv9279) Units=km Length=0.0593912 bus1=p4udm10298.1.2 bus2=p4ulv9279.1.2 switch=n enabled=y phases=2 Linecode=1P_OH_AL_4/0_Zuzara_0_416_0_2_2_2_2

New Line.l(r:p4udm10298-p4udt3932lv) Units=km Length=0.00765065 bus1=p4udt3932lv.1.2 bus2=p4udm10298.1.2 switch=n enabled=y phases=2 Linecode=1P_OH_AL_2/0_Rucina_0_416_0_2_2_2_2

New Line.l(r:p4udm10301-p4ulv27668) Units=km Length=0.036056 bus1=p4udm10301.1.2 bus2=p4ulv27668.1.2 switch=n enabled=y phases=2 Linecode=1P_OH_AL_4/0_Zuzara_0_416_0_2_2_2_2

New Line.l(r:p4udm10301-p4udt3932lv) Units=km Length=0.00770423 bus1=p4udt3932lv.1.2 bus2=p4udm10301.1.2 switch=n enabled=y phases=2 Linecode=1P_OH_AL_2/0_Rucina_0_416_0_2_2_2_2

New Line.l(r:p4udt4254lv-p4ulv4644) Units=km Length=0.0270523 bus1=p4udt4254lv.1.2 bus2=p4ulv4644.1.2 switch=n enabled=y phases=2 Linecode=1P_OH_AL_4/0_Zuzara_0_416_0_2_2_2_2

New Line.l(r:p4udt4325lv-p4ulv4730) Units=km Length=0.0879146 bus1=p4udt4325lv.1.2 bus2=p4ulv4730.1.2 switch=n enabled=y phases=2 Linecode=1P_OH_AL_4/0_Zuzara_0_416_0_2_2_2_2

New Line.l(r:p4udm11273-p4ulv15441) Units=km Length=0.0675102 bus1=p4udm11273.1.2 bus2=p4ulv15441.1.2 switch=n enabled=y phases=2 Linecode=1P_OH_AL_4/0_Zuzara_0_416_0_2_2_2_2

New Line.l(r:p4udm11273-p4udt4325lv) Units=km Length=0.0191406 bus1=p4udt4325lv.1.2 bus2=p4udm11273.1.2 switch=n enabled=y phases=2 Linecode=1P_OH_AL_2/0_Rucina_0_416_0_2_2_2_2

New Line.l(r:p4udt4327lv-p4ulv4733) Units=km Length=0.017937 bus1=p4udt4327lv.1.2 bus2=p4ulv4733.1.2 switch=n enabled=y phases=2 Linecode=1P_OH_AL_2/0_Rucina_0_416_0_2_2_2_2

New Line.l(r:p4udt4327lv-p4ulv25603) Units=km Length=0.017937 bus1=p4udt4327lv.1.2 bus2=p4ulv25603.1.2 switch=n enabled=y phases=2 Linecode=1P_OH_AL_2/0_Rucina_0_416_0_2_2_2_2

New Line.l(r:p4udt4328lv-p4ulv4734) Units=km Length=0.0334655 bus1=p4udt4328lv.1.2 bus2=p4ulv4734.1.2 switch=n enabled=y phases=2 Linecode=1P_OH_AL_4/0_Zuzara_0_416_0_2_2_2_2

New Line.l(r:p4udt4328lv-p4ulv8957) Units=km Length=0.007610990000000001 bus1=p4udt4328lv.1.2 bus2=p4ulv8957.1.2 switch=n enabled=y phases=2 Linecode=1P_OH_AL_2/0_Rucina_0_416_0_2_2_2_2

New Line.l(r:p4udt4328lv-p4ulv24348) Units=km Length=0.0891504 bus1=p4udt4328lv.1.2 bus2=p4ulv24348.1.2 switch=n enabled=y phases=2 Linecode=1P_OH_AL_4/0_Zuzara_0_416_0_2_2_2_2

New Line.l(r:p4udm11282-p4ulv19301) Units=km Length=0.0587562 bus1=p4udm11282.1.2 bus2=p4ulv19301.1.2 switch=n enabled=y phases=2 Linecode=1P_OH_AL_4/0_Zuzara_0_416_0_2_2_2_2

New Line.l(r:p4udm11282-p4udt4328lv)_s0 Units=km Length=0.0602514 bus1=p4udt4328lv.1.2 bus2=p4udm11282-p4udt4328lvx.1.2 switch=n enabled=y phases=2 Linecode=1P_OH_AL_4/0_Zuzara_0_416_0_2_2_2_2

New Line.l(r:p4udm11282-p4udt4328lv)_s1 Units=km Length=0.022578 bus1=p4udm11282-p4udt4328lvx.1.2 bus2=p4udm11282.1.2 switch=n enabled=y phases=2 Linecode=1P_OH_AL_2/0_Rucina_0_416_0_2_2_2_2

New Line.l(r:p4udt4329lv-p4ulv6850) Units=km Length=0.048918100000000006 bus1=p4udt4329lv.1.2 bus2=p4ulv6850.1.2 switch=n enabled=y phases=2 Linecode=1P_OH_AL_4/0_Zuzara_0_416_0_2_2_2_2

New Line.l(r:p4udm11284-p4ulv4735) Units=km Length=0.04240320000000001 bus1=p4udm11284.1.2 bus2=p4ulv4735.1.2 switch=n enabled=y phases=2 Linecode=1P_OH_AL_4/0_Zuzara_0_416_0_2_2_2_2

New Line.l(r:p4udm11284-p4udt4329lv) Units=km Length=0.019988200000000005 bus1=p4udt4329lv.1.2 bus2=p4udm11284.1.2 switch=n enabled=y phases=2 Linecode=1P_OH_AL_2/0_Rucina_0_416_0_2_2_2_2

New Line.l(r:p4udm11286-p4ulv18879) Units=km Length=0.0317273 bus1=p4udm11286.1.2 bus2=p4ulv18879.1.2 switch=n enabled=y phases=2 Linecode=1P_OH_AL_4/0_Zuzara_0_416_0_2_2_2_2

New Line.l(r:p4udm11286-p4udt4329lv) Units=km Length=0.0315854 bus1=p4udt4329lv.1.2 bus2=p4udm11286.1.2 switch=n enabled=y phases=2 Linecode=1P_OH_AL_4/0_Zuzara_0_416_0_2_2_2_2

New Line.l(r:p4udt4330lv-p4ulv4736) Units=km Length=0.001 bus1=p4udt4330lv.1.2 bus2=p4ulv4736.1.2 switch=n enabled=y phases=2 Linecode=1P_OH_AL_4_Periwinkle_0_416_0_2_2_2_2

New Line.l(r:p4udt4675lv-p4ulv5155) Units=km Length=0.0156971 bus1=p4udt4675lv.1.2 bus2=p4ulv5155.1.2 switch=n enabled=y phases=2 Linecode=1P_OH_AL_2/0_Rucina_0_416_0_2_2_2_2

New Line.l(r:p4udt4675lv-p4ulv28179) Units=km Length=0.0156971 bus1=p4udt4675lv.1.2 bus2=p4ulv28179.1.2 switch=n enabled=y phases=2 Linecode=1P_OH_AL_2/0_Rucina_0_416_0_2_2_2_2

New Line.l(r:p4udt4678lv-p4ulv11945) Units=km Length=0.0240481 bus1=p4udt4678lv.1.2 bus2=p4ulv11945.1.2 switch=n enabled=y phases=2 Linecode=1P_UG_AL_1/0_Brenau_0_416_0_2_2_2_2

New Line.l(r:p4udt4678lv-p4ulv39130) Units=km Length=0.0392393 bus1=p4udt4678lv.1.2 bus2=p4ulv39130.1.2 switch=n enabled=y phases=2 Linecode=1P_UG_AL_2/0_Converse_0_416_0_2_2_2_2

New Line.l(r:p4udm12179-p4ulv5158) Units=km Length=0.0336361 bus1=p4udm12179.1.2 bus2=p4ulv5158.1.2 switch=n enabled=y phases=2 Linecode=1P_UG_AL_2/0_Converse_0_416_0_2_2_2_2

New Line.l(r:p4udm12179-p4udt4678lv) Units=km Length=0.00877363 bus1=p4udt4678lv.1.2 bus2=p4udm12179.1.2 switch=n enabled=y phases=2 Linecode=1P_UG_AL_2/0_Converse_0_416_0_2_2_2_2

New Line.l(r:p4udm12868-p4ulv5502) Units=km Length=0.0146528 bus1=p4udm12868.1.2 bus2=p4ulv5502.1.2 switch=n enabled=y phases=2 Linecode=1P_OH_AL_2/0_Rucina_0_416_0_2_2_2_2

New Line.l(r:p4udm12869-p4ulv20077) Units=km Length=0.0114302 bus1=p4udm12869.1.2 bus2=p4ulv20077.1.2 switch=n enabled=y phases=2 Linecode=1P_OH_AL_2/0_Rucina_0_416_0_2_2_2_2

New Line.l(r:p4udm12868-p4udm12869) Units=km Length=0.0898307 bus1=p4udm12868.1.2 bus2=p4udm12869.1.2 switch=n enabled=y phases=2 Linecode=1P_OH_AL_4/0_Zuzara_0_416_0_2_2_2_2

New Line.l(r:p4udm12868-p4udt4952lv) Units=km Length=0.0212711 bus1=p4udt4952lv.1.2 bus2=p4udm12868.1.2 switch=n enabled=y phases=2 Linecode=1P_OH_AL_2/0_Rucina_0_416_0_2_2_2_2

New Line.l(r:p4udt5034lv-p4ulv5602) Units=km Length=0.001 bus1=p4udt5034lv.1.2 bus2=p4ulv5602.1.2 switch=n enabled=y phases=2 Linecode=1P_OH_AL_4_Periwinkle_0_416_0_2_2_2_2

New Line.l(r:p4udt5289lv-p4ulv5922) Units=km Length=0.05046380000000001 bus1=p4udt5289lv.1.2 bus2=p4ulv5922.1.2 switch=n enabled=y phases=2 Linecode=1P_OH_AL_4/0_Zuzara_0_416_0_2_2_2_2

New Line.l(r:p4udm13671-p4ulv35681) Units=km Length=0.0327099 bus1=p4udm13671.1.2 bus2=p4ulv35681.1.2 switch=n enabled=y phases=2 Linecode=1P_OH_AL_4/0_Zuzara_0_416_0_2_2_2_2

New Line.l(r:p4udm13671-p4udt5289lv) Units=km Length=0.0135004 bus1=p4udt5289lv.1.2 bus2=p4udm13671.1.2 switch=n enabled=y phases=2 Linecode=1P_OH_AL_2/0_Rucina_0_416_0_2_2_2_2

New Line.l(r:p4udt5295lv-p4ulv5929) Units=km Length=0.001 bus1=p4udt5295lv.1.2 bus2=p4ulv5929.1.2 switch=n enabled=y phases=2 Linecode=1P_OH_AL_4_Periwinkle_0_416_0_2_2_2_2

New Line.l(r:p4udt5360lv-p4ulv6010) Units=km Length=0.026767 bus1=p4udt5360lv.1.2 bus2=p4ulv6010.1.2 switch=n enabled=y phases=2 Linecode=1P_UG_AL_2/0_Converse_0_416_0_2_2_2_2

New Line.l(r:p4udt5361lv-p4ulv6011) Units=km Length=0.0404189 bus1=p4udt5361lv.1.2 bus2=p4ulv6011.1.2 switch=n enabled=y phases=2 Linecode=1P_OH_AL_4/0_Zuzara_0_416_0_2_2_2_2

New Line.l(r:p4udt5630lv-p4ulv6347) Units=km Length=0.0326722 bus1=p4udt5630lv.1.2 bus2=p4ulv6347.1.2 switch=n enabled=y phases=2 Linecode=1P_OH_AL_4/0_Zuzara_0_416_0_2_2_2_2

New Line.l(r:p4udt5630lv-p4ulv27235) Units=km Length=0.033465400000000006 bus1=p4udt5630lv.1.2 bus2=p4ulv27235.1.2 switch=n enabled=y phases=2 Linecode=1P_OH_AL_4/0_Zuzara_0_416_0_2_2_2_2

New Line.l(r:p4udt5631lv-p4ulv34459) Units=km Length=0.030458600000000002 bus1=p4udt5631lv.1.2 bus2=p4ulv34459.1.2 switch=n enabled=y phases=2 Linecode=1P_OH_AL_4/0_Zuzara_0_416_0_2_2_2_2

New Line.l(r:p4udm14469-p4ulv6348) Units=km Length=0.037745 bus1=p4udm14469.1.2 bus2=p4ulv6348.1.2 switch=n enabled=y phases=2 Linecode=1P_OH_AL_4/0_Zuzara_0_416_0_2_2_2_2

New Line.l(r:p4udm14469-p4udt5631lv) Units=km Length=0.012931800000000002 bus1=p4udt5631lv.1.2 bus2=p4udm14469.1.2 switch=n enabled=y phases=2 Linecode=1P_OH_AL_2/0_Rucina_0_416_0_2_2_2_2

New Line.l(r:p4udt5692lv-p4ulv6425) Units=km Length=0.0272659 bus1=p4udt5692lv.1.2 bus2=p4ulv6425.1.2 switch=n enabled=y phases=2 Linecode=1P_OH_AL_4/0_Zuzara_0_416_0_2_2_2_2

New Line.l(r:p4udm14621-p4ulv31580) Units=km Length=0.0271351 bus1=p4udm14621.1.2 bus2=p4ulv31580.1.2 switch=n enabled=y phases=2 Linecode=1P_OH_AL_4/0_Zuzara_0_416_0_2_2_2_2

New Line.l(r:p4udm14621-p4udt5692lv) Units=km Length=0.0270071 bus1=p4udt5692lv.1.2 bus2=p4udm14621.1.2 switch=n enabled=y phases=2 Linecode=1P_OH_AL_4/0_Zuzara_0_416_0_2_2_2_2

New Line.l(r:p4udt5944lv-p4ulv6747) Units=km Length=0.0362529 bus1=p4udt5944lv.1.2 bus2=p4ulv6747.1.2 switch=n enabled=y phases=2 Linecode=1P_OH_AL_4/0_Zuzara_0_416_0_2_2_2_2

New Line.l(r:p4udt6021lv-p4ulv6847) Units=km Length=0.001 bus1=p4udt6021lv.1.2 bus2=p4ulv6847.1.2 switch=n enabled=y phases=2 Linecode=1P_OH_AL_4_Periwinkle_0_416_0_2_2_2_2

New Line.l(r:p4udt6253lv-p4ulv7145) Units=km Length=0.0233047 bus1=p4udt6253lv.1.2 bus2=p4ulv7145.1.2 switch=n enabled=y phases=2 Linecode=1P_OH_AL_2/0_Rucina_0_416_0_2_2_2_2

New Line.l(r:p4udt6253lv-p4ulv16203) Units=km Length=0.0233047 bus1=p4udt6253lv.1.2 bus2=p4ulv16203.1.2 switch=n enabled=y phases=2 Linecode=1P_OH_AL_2/0_Rucina_0_416_0_2_2_2_2

New Line.l(r:p4udt6259lv-p4ulv7155) Units=km Length=0.0385565 bus1=p4udt6259lv.1.2 bus2=p4ulv7155.1.2 switch=n enabled=y phases=2 Linecode=1P_OH_AL_4/0_Zuzara_0_416_0_2_2_2_2

New Line.l(r:p4udm15934-p4ulv10156) Units=km Length=0.0284899 bus1=p4udm15934.1.2 bus2=p4ulv10156.1.2 switch=n enabled=y phases=2 Linecode=1P_OH_AL_4/0_Zuzara_0_416_0_2_2_2_2

New Line.l(r:p4udm15934-p4udt6259lv) Units=km Length=0.0144301 bus1=p4udt6259lv.1.2 bus2=p4udm15934.1.2 switch=n enabled=y phases=2 Linecode=1P_OH_AL_2/0_Rucina_0_416_0_2_2_2_2

New Line.l(r:p4udt6650lv-p4ulv7687) Units=km Length=0.001 bus1=p4udt6650lv.1.2 bus2=p4ulv7687.1.2 switch=n enabled=y phases=2 Linecode=1P_OH_AL_4_Periwinkle_0_416_0_2_2_2_2

New Line.l(r:p4udt6651lv-p4ulv7688) Units=km Length=0.03961080000000001 bus1=p4udt6651lv.1.2 bus2=p4ulv7688.1.2 switch=n enabled=y phases=2 Linecode=1P_OH_AL_4/0_Zuzara_0_416_0_2_2_2_2

New Line.l(r:p4udm16837-p4ulv23922) Units=km Length=0.0657835 bus1=p4udm16837.1.2 bus2=p4ulv23922.1.2 switch=n enabled=y phases=2 Linecode=1P_OH_AL_4/0_Zuzara_0_416_0_2_2_2_2

New Line.l(r:p4udm16837-p4udt6651lv) Units=km Length=0.0161204 bus1=p4udt6651lv.1.2 bus2=p4udm16837.1.2 switch=n enabled=y phases=2 Linecode=1P_OH_AL_2/0_Rucina_0_416_0_2_2_2_2

New Line.l(r:p4udt6652lv-p4ulv7689) Units=km Length=0.0172985 bus1=p4udt6652lv.1.2 bus2=p4ulv7689.1.2 switch=n enabled=y phases=2 Linecode=1P_OH_AL_2/0_Rucina_0_416_0_2_2_2_2

New Line.l(r:p4udt6652lv-p4ulv9824) Units=km Length=0.0590403 bus1=p4udt6652lv.1.2 bus2=p4ulv9824.1.2 switch=n enabled=y phases=2 Linecode=1P_OH_AL_4/0_Zuzara_0_416_0_2_2_2_2

New Line.l(r:p4udt6652lv-p4ulv17208) Units=km Length=0.0588552 bus1=p4udt6652lv.1.2 bus2=p4ulv17208.1.2 switch=n enabled=y phases=2 Linecode=1P_OH_AL_4/0_Zuzara_0_416_0_2_2_2_2

New Line.l(r:p4udt6652lv-p4ulv28624) Units=km Length=0.044564 bus1=p4udt6652lv.1.2 bus2=p4ulv28624.1.2 switch=n enabled=y phases=2 Linecode=1P_OH_AL_4/0_Zuzara_0_416_0_2_2_2_2

New Line.l(r:p4udt6652lv-p4ulv32821) Units=km Length=0.0192366 bus1=p4udt6652lv.1.2 bus2=p4ulv32821.1.2 switch=n enabled=y phases=2 Linecode=1P_OH_AL_2/0_Rucina_0_416_0_2_2_2_2

New Line.l(r:p4udt6654lv-p4ulv7691) Units=km Length=0.0276869 bus1=p4udt6654lv.1.2 bus2=p4ulv7691.1.2 switch=n enabled=y phases=2 Linecode=1P_OH_AL_4/0_Zuzara_0_416_0_2_2_2_2

New Line.l(r:p4udt6975lv-p4ulv8123) Units=km Length=0.00919133 bus1=p4udt6975lv.1.2 bus2=p4ulv8123.1.2 switch=n enabled=y phases=2 Linecode=1P_OH_AL_2/0_Rucina_0_416_0_2_2_2_2

New Line.l(r:p4udt7228lv-p4ulv16205) Units=km Length=0.048239800000000006 bus1=p4udt7228lv.1.2 bus2=p4ulv16205.1.2 switch=n enabled=y phases=2 Linecode=1P_OH_AL_4/0_Zuzara_0_416_0_2_2_2_2

New Line.l(r:p4udm18164-p4ulv8471) Units=km Length=0.0483152 bus1=p4udm18164.1.2 bus2=p4ulv8471.1.2 switch=n enabled=y phases=2 Linecode=1P_OH_AL_4/0_Zuzara_0_416_0_2_2_2_2

New Line.l(r:p4udm18164-p4udt7228lv) Units=km Length=0.00748329 bus1=p4udt7228lv.1.2 bus2=p4udm18164.1.2 switch=n enabled=y phases=2 Linecode=1P_OH_AL_2/0_Rucina_0_416_0_2_2_2_2

New Line.l(r:p4udt7305lv-p4ulv8576) Units=km Length=0.059705 bus1=p4udt7305lv.1.2 bus2=p4ulv8576.1.2 switch=n enabled=y phases=2 Linecode=1P_OH_AL_4/0_Zuzara_0_416_0_2_2_2_2

New Line.l(r:p4udt7506lv-p4ulv8862) Units=km Length=0.0252601 bus1=p4udt7506lv.1.2 bus2=p4ulv8862.1.2 switch=n enabled=y phases=2 Linecode=1P_OH_AL_2/0_Rucina_0_416_0_2_2_2_2

New Line.l(r:p4udt7573lv-p4ulv8954) Units=km Length=0.0107011 bus1=p4udt7573lv.1.2 bus2=p4ulv8954.1.2 switch=n enabled=y phases=2 Linecode=1P_OH_AL_2/0_Rucina_0_416_0_2_2_2_2

New Line.l(r:p4udt7575lv-p4ulv8956) Units=km Length=0.026756900000000004 bus1=p4udt7575lv.1.2 bus2=p4ulv8956.1.2 switch=n enabled=y phases=2 Linecode=1P_OH_AL_2/0_Rucina_0_416_0_2_2_2_2

New Line.l(r:p4udt7575lv-p4ulv37037) Units=km Length=0.026756900000000004 bus1=p4udt7575lv.1.2 bus2=p4ulv37037.1.2 switch=n enabled=y phases=2 Linecode=1P_OH_AL_2/0_Rucina_0_416_0_2_2_2_2

New Line.l(r:p4udt7807lv-p4ulv9285) Units=km Length=0.0260066 bus1=p4udt7807lv.1.2 bus2=p4ulv9285.1.2 switch=n enabled=y phases=2 Linecode=1P_OH_AL_2/0_Rucina_0_416_0_2_2_2_2
