Clear

New Circuit.substation_p2uhs1_69 bus1=p2uhs1_69 pu=1.0 basekV=69.0 R1=1e-05 X1=1e-05 R0=1e-05 X0=1e-05

Redirect Transformers.dss
Redirect p2uhs1_1247--p2udt3475/Transformers.dss
Redirect p2uhs1_1247--p2udt4740/Transformers.dss
Redirect p2uhs1_1247--p2udt3615/Transformers.dss
Redirect p2uhs1_1247--p2udt3740/Transformers.dss
Redirect p2uhs1_1247--p2udt7154/Transformers.dss
Redirect Regulators.dss
Redirect p2uhs1_1247--p2udt3475/Loads.dss
Redirect p2uhs1_1247--p2udt4740/Loads.dss
Redirect p2uhs1_1247--p2udt3615/Loads.dss
Redirect p2uhs1_1247--p2udt3740/Loads.dss
Redirect p2uhs1_1247--p2udt7154/Loads.dss
Redirect LineCodes.dss
Redirect p2uhs1_1247--p2udt3475/LineCodes.dss
Redirect p2uhs1_1247--p2udt4740/LineCodes.dss
Redirect p2uhs1_1247--p2udt3615/LineCodes.dss
Redirect p2uhs1_1247--p2udt3740/LineCodes.dss
Redirect p2uhs1_1247--p2udt7154/LineCodes.dss
Redirect Lines.dss
Redirect p2uhs1_1247--p2udt3475/Lines.dss
Redirect p2uhs1_1247--p2udt4740/Lines.dss
Redirect p2uhs1_1247--p2udt3615/Lines.dss
Redirect p2uhs1_1247--p2udt3740/Lines.dss
Redirect p2uhs1_1247--p2udt7154/Lines.dss
Redirect p2uhs1_1247--p2udt4740/Capacitors.dss
Redirect p2uhs1_1247--p2udt3615/Capacitors.dss
Redirect p2uhs1_1247--p2udt7154/Capacitors.dss
Redirect p2uhs1_1247--p2udt3475/Capacitors.dss

Set Voltagebases=[0.2080002494301389, 0.48, 7.199560000000001, 12.47, 69.0]

Calcvoltagebases

Buscoords Buscoords.dss

Solve