New Load.load_p2ulv217 conn=wye bus1=p2ulv217.1.2 kV=0.2080002494301389 Vminpu=0.8 Vmaxpu=1.2 model=1 kW=5.600060000000001 kvar=1.1400675357543906 Phases=2

New Load.load_p2ulv218 conn=wye bus1=p2ulv218.1.2.3 kV=0.48 Vminpu=0.8 Vmaxpu=1.2 model=1 kW=28.8203 kvar=5.852211517070193 Phases=3

New Load.load_p2ulv451 conn=wye bus1=p2ulv451.1.2 kV=0.2080002494301389 Vminpu=0.8 Vmaxpu=1.2 model=1 kW=7.78008 kvar=1.579812624425404 Phases=2

New Load.load_p2ulv686 conn=wye bus1=p2ulv686.1.2 kV=0.2080002494301389 Vminpu=0.8 Vmaxpu=1.2 model=1 kW=8.90009 kvar=1.8118919572812247 Phases=2

New Load.load_p2ulv924 conn=wye bus1=p2ulv924.1.2 kV=0.2080002494301389 Vminpu=0.8 Vmaxpu=1.2 model=1 kW=3.59004 kvar=0.7308650364566972 Phases=2

New Load.load_p2ulv1177 conn=wye bus1=p2ulv1177.1.2 kV=0.2080002494301389 Vminpu=0.8 Vmaxpu=1.2 model=1 kW=4.81005 kvar=0.9792362671748885 Phases=2

New Load.load_p2ulv1178 conn=wye bus1=p2ulv1178.1.2 kV=0.2080002494301389 Vminpu=0.8 Vmaxpu=1.2 model=1 kW=7.240070000000001 kvar=1.4701589170964355 Phases=2

New Load.load_p2ulv1424 conn=wye bus1=p2ulv1424.1.2 kV=0.2080002494301389 Vminpu=0.8 Vmaxpu=1.2 model=1 kW=5.82006 kvar=1.1787648385814788 Phases=2

New Load.load_p2ulv1431 conn=wye bus1=p2ulv1431.1.2 kV=0.2080002494301389 Vminpu=0.8 Vmaxpu=1.2 model=1 kW=5.560060000000001 kvar=1.129018336644702 Phases=2

New Load.load_p2ulv1432 conn=wye bus1=p2ulv1432.1.2 kV=0.2080002494301389 Vminpu=0.8 Vmaxpu=1.2 model=1 kW=5.380050000000001 kvar=1.0896474898558242 Phases=2

New Load.load_p2ulv1653 conn=wye bus1=p2ulv1653.1.2 kV=0.2080002494301389 Vminpu=0.8 Vmaxpu=1.2 model=1 kW=12.3801 kvar=2.507401397601154 Phases=2

New Load.load_p2ulv1655 conn=wye bus1=p2ulv1655.1.2 kV=0.2080002494301389 Vminpu=0.8 Vmaxpu=1.2 model=1 kW=4.77005 kvar=0.9710930148829175 Phases=2

New Load.load_p2ulv1656 conn=wye bus1=p2ulv1656.1.2 kV=0.2080002494301389 Vminpu=0.8 Vmaxpu=1.2 model=1 kW=4.37004 kvar=0.8896584561501336 Phases=2

New Load.load_p2ulv1902 conn=wye bus1=p2ulv1902.1.2 kV=0.2080002494301389 Vminpu=0.8 Vmaxpu=1.2 model=1 kW=6.07006 kvar=1.2293985450459088 Phases=2

New Load.load_p2ulv1903 conn=wye bus1=p2ulv1903.1.2 kV=0.2080002494301389 Vminpu=0.8 Vmaxpu=1.2 model=1 kW=2.92003 kvar=0.9597674476454359 Phases=2

New Load.load_p2ulv1906 conn=wye bus1=p2ulv1906.1.2 kV=0.2080002494301389 Vminpu=0.8 Vmaxpu=1.2 model=1 kW=4.38004 kvar=0.8894050559233643 Phases=2

New Load.load_p2ulv1907 conn=wye bus1=p2ulv1907.1.2 kV=0.2080002494301389 Vminpu=0.8 Vmaxpu=1.2 model=1 kW=4.87005 kvar=0.9889058302206326 Phases=2

New Load.load_p2ulv2122 conn=wye bus1=p2ulv2122.1.2 kV=0.2080002494301389 Vminpu=0.8 Vmaxpu=1.2 model=1 kW=4.37004 kvar=1.4394617812713364 Phases=2

New Load.load_p2ulv2133 conn=wye bus1=p2ulv2133.1.2 kV=0.2080002494301389 Vminpu=0.8 Vmaxpu=1.2 model=1 kW=1.44001 kvar=0.2901383334885957 Phases=2

New Load.load_p2ulv2388 conn=wye bus1=p2ulv2388.1.2 kV=0.2080002494301389 Vminpu=0.8 Vmaxpu=1.2 model=1 kW=5.15005 kvar=1.0511394966246144 Phases=2

New Load.load_p2ulv2389 conn=wye bus1=p2ulv2389.1.2 kV=0.2080002494301389 Vminpu=0.8 Vmaxpu=1.2 model=1 kW=5.31005 kvar=1.0810269208245273 Phases=2

New Load.load_p2ulv2390 conn=wye bus1=p2ulv2390.1.2 kV=0.2080002494301389 Vminpu=0.8 Vmaxpu=1.2 model=1 kW=5.520060000000001 kvar=1.1208959902193418 Phases=2

New Load.load_p2ulv2639 conn=wye bus1=p2ulv2639.1.2 kV=0.2080002494301389 Vminpu=0.8 Vmaxpu=1.2 model=1 kW=13.2101 kvar=2.68242521284126 Phases=2

New Load.load_p2ulv2650 conn=wye bus1=p2ulv2650.1.2 kV=0.2080002494301389 Vminpu=0.8 Vmaxpu=1.2 model=1 kW=5.31005 kvar=1.0810269208245273 Phases=2

New Load.load_p2ulv3140 conn=wye bus1=p2ulv3140.1.2 kV=0.2080002494301389 Vminpu=0.8 Vmaxpu=1.2 model=1 kW=6.67007 kvar=1.3509214659087996 Phases=2

New Load.load_p2ulv3141 conn=wye bus1=p2ulv3141.1.2 kV=0.2080002494301389 Vminpu=0.8 Vmaxpu=1.2 model=1 kW=4.2400400000000005 kvar=0.8609768434346036 Phases=2

New Load.load_p2ulv3593 conn=wye bus1=p2ulv3593.1.2 kV=0.2080002494301389 Vminpu=0.8 Vmaxpu=1.2 model=1 kW=13.1501 kvar=4.322228851512569 Phases=2

New Load.load_p2ulv3594 conn=wye bus1=p2ulv3594.1.2.3 kV=0.48 Vminpu=0.8 Vmaxpu=1.2 model=1 kW=25.240300000000005 kvar=5.12526151200046 Phases=3

New Load.load_p2ulv3601 conn=wye bus1=p2ulv3601.1.2 kV=0.2080002494301389 Vminpu=0.8 Vmaxpu=1.2 model=1 kW=2.49002 kvar=0.5095155441111284 Phases=2

New Load.load_p2ulv3602 conn=wye bus1=p2ulv3602.1.2 kV=0.2080002494301389 Vminpu=0.8 Vmaxpu=1.2 model=1 kW=4.72005 kvar=0.9609139495179535 Phases=2

New Load.load_p2ulv3603 conn=wye bus1=p2ulv3603.1.2 kV=0.2080002494301389 Vminpu=0.8 Vmaxpu=1.2 model=1 kW=12.1201 kvar=2.4610912727501955 Phases=2

New Load.load_p2ulv3604 conn=wye bus1=p2ulv3604.1.2 kV=0.2080002494301389 Vminpu=0.8 Vmaxpu=1.2 model=1 kW=4.18004 kvar=0.8509780077632708 Phases=2

New Load.load_p2ulv3841 conn=wye bus1=p2ulv3841.1.2 kV=0.2080002494301389 Vminpu=0.8 Vmaxpu=1.2 model=1 kW=12.5201 kvar=4.1195989859030595 Phases=2

New Load.load_p2ulv4093 conn=wye bus1=p2ulv4093.1.2 kV=0.2080002494301389 Vminpu=0.8 Vmaxpu=1.2 model=1 kW=10.8201 kvar=2.20277010310891 Phases=2

New Load.load_p2ulv4333 conn=wye bus1=p2ulv4333.1.2 kV=0.2080002494301389 Vminpu=0.8 Vmaxpu=1.2 model=1 kW=11.3101 kvar=2.3025249436855555 Phases=2

New Load.load_p2ulv4334 conn=wye bus1=p2ulv4334.1.2 kV=0.2080002494301389 Vminpu=0.8 Vmaxpu=1.2 model=1 kW=9.01009 kvar=1.8295768075918357 Phases=2

New Load.load_p2ulv4579 conn=wye bus1=p2ulv4579.1.2 kV=0.2080002494301389 Vminpu=0.8 Vmaxpu=1.2 model=1 kW=9.19009 kvar=1.870930536398015 Phases=2

New Load.load_p2ulv4823 conn=wye bus1=p2ulv4823.1.2 kV=0.2080002494301389 Vminpu=0.8 Vmaxpu=1.2 model=1 kW=6.38006 kvar=1.298860955447827 Phases=2

New Load.load_p2ulv4824 conn=wye bus1=p2ulv4824.1.2 kV=0.2080002494301389 Vminpu=0.8 Vmaxpu=1.2 model=1 kW=13.2001 kvar=4.338663056771511 Phases=2

New Load.load_p2ulv4835 conn=wye bus1=p2ulv4835.1.2 kV=0.2080002494301389 Vminpu=0.8 Vmaxpu=1.2 model=1 kW=5.72006 kvar=1.1585113559957074 Phases=2

New Load.load_p2ulv5076 conn=wye bus1=p2ulv5076.1.2 kV=0.2080002494301389 Vminpu=0.8 Vmaxpu=1.2 model=1 kW=4.94005 kvar=1.0005321664784275 Phases=2

New Load.load_p2ulv5292 conn=wye bus1=p2ulv5292.1.2 kV=0.2080002494301389 Vminpu=0.8 Vmaxpu=1.2 model=1 kW=4.94005 kvar=1.0005321664784275 Phases=2

New Load.load_p2ulv5541 conn=wye bus1=p2ulv5541.1.2 kV=0.2080002494301389 Vminpu=0.8 Vmaxpu=1.2 model=1 kW=5.23005 kvar=1.059267265977166 Phases=2

New Load.load_p2ulv5542 conn=wye bus1=p2ulv5542.1.2 kV=0.2080002494301389 Vminpu=0.8 Vmaxpu=1.2 model=1 kW=5.47005 kvar=1.110741026601035 Phases=2

New Load.load_p2ulv5769 conn=wye bus1=p2ulv5769.1.2 kV=0.2080002494301389 Vminpu=0.8 Vmaxpu=1.2 model=1 kW=6.18006 kvar=1.2613673959495373 Phases=2

New Load.load_p2ulv5770 conn=wye bus1=p2ulv5770.1.2 kV=0.2080002494301389 Vminpu=0.8 Vmaxpu=1.2 model=1 kW=13.2701 kvar=2.7015443059921385 Phases=2

New Load.load_p2ulv6007 conn=wye bus1=p2ulv6007.1.2 kV=0.2080002494301389 Vminpu=0.8 Vmaxpu=1.2 model=1 kW=9.15009 kvar=1.8580050200805964 Phases=2

New Load.load_p2ulv6008 conn=wye bus1=p2ulv6008.1.2 kV=0.2080002494301389 Vminpu=0.8 Vmaxpu=1.2 model=1 kW=6.04006 kvar=1.2296433109660727 Phases=2

New Load.load_p2ulv6013 conn=wye bus1=p2ulv6013.1.2 kV=0.2080002494301389 Vminpu=0.8 Vmaxpu=1.2 model=1 kW=15.560200000000002 kvar=3.1596333711972338 Phases=2

New Load.load_p2ulv6022 conn=wye bus1=p2ulv6022.1.2 kV=0.2080002494301389 Vminpu=0.8 Vmaxpu=1.2 model=1 kW=1.26001 kvar=0.41010720086574765 Phases=2

New Load.load_p2ulv6024 conn=wye bus1=p2ulv6024.1.2 kV=0.2080002494301389 Vminpu=0.8 Vmaxpu=1.2 model=1 kW=5.380050000000001 kvar=1.0896474898558242 Phases=2

New Load.load_p2ulv6281 conn=wye bus1=p2ulv6281.1.2 kV=0.2080002494301389 Vminpu=0.8 Vmaxpu=1.2 model=1 kW=7.83008 kvar=1.5899655574571043 Phases=2

New Load.load_p2ulv6511 conn=wye bus1=p2ulv6511.1.2 kV=0.2080002494301389 Vminpu=0.8 Vmaxpu=1.2 model=1 kW=9.7901 kvar=1.9879645934729655 Phases=2

New Load.load_p2ulv6514 conn=wye bus1=p2ulv6514.1.2 kV=0.2080002494301389 Vminpu=0.8 Vmaxpu=1.2 model=1 kW=1.75002 kvar=0.5702204175888775 Phases=2

New Load.load_p2ulv6524 conn=wye bus1=p2ulv6524.1.2.3 kV=0.48 Vminpu=0.8 Vmaxpu=1.2 model=1 kW=57.98060000000001 kvar=11.77346297875595 Phases=3

New Load.load_p2ulv6749 conn=wye bus1=p2ulv6749.1.2 kV=0.2080002494301389 Vminpu=0.8 Vmaxpu=1.2 model=1 kW=4.98005 kvar=1.011242282890373 Phases=2

New Load.load_p2ulv6976 conn=wye bus1=p2ulv6976.1.2 kV=0.2080002494301389 Vminpu=0.8 Vmaxpu=1.2 model=1 kW=5.28005 kvar=1.069394007270052 Phases=2

New Load.load_p2ulv6977 conn=wye bus1=p2ulv6977.1.2 kV=0.2080002494301389 Vminpu=0.8 Vmaxpu=1.2 model=1 kW=6.17006 kvar=1.249652027631681 Phases=2

New Load.load_p2ulv6978 conn=wye bus1=p2ulv6978.1.2 kV=0.2080002494301389 Vminpu=0.8 Vmaxpu=1.2 model=1 kW=8.76009 kvar=1.7788121424333347 Phases=2

New Load.load_p2ulv7238 conn=wye bus1=p2ulv7238.1.2 kV=0.2080002494301389 Vminpu=0.8 Vmaxpu=1.2 model=1 kW=5.97006 kvar=1.2091450624601374 Phases=2

New Load.load_p2ulv7246 conn=wye bus1=p2ulv7246.1.2 kV=0.2080002494301389 Vminpu=0.8 Vmaxpu=1.2 model=1 kW=9.8901 kvar=2.008270459536366 Phases=2

New Load.load_p2ulv7247 conn=wye bus1=p2ulv7247.1.2 kV=0.2080002494301389 Vminpu=0.8 Vmaxpu=1.2 model=1 kW=10.670100000000001 kvar=2.1722329070140183 Phases=2

New Load.load_p2ulv7464 conn=wye bus1=p2ulv7464.1.2 kV=0.2080002494301389 Vminpu=0.8 Vmaxpu=1.2 model=1 kW=1.75002 kvar=0.5801567372313855 Phases=2

New Load.load_p2ulv7465 conn=wye bus1=p2ulv7465.1.2.3 kV=0.48 Vminpu=0.8 Vmaxpu=1.2 model=1 kW=129.751 kvar=42.64709133106267 Phases=3

New Load.load_p2ulv7470 conn=wye bus1=p2ulv7470.1.2 kV=0.2080002494301389 Vminpu=0.8 Vmaxpu=1.2 model=1 kW=7.37007 kvar=1.5004084854871844 Phases=2

New Load.load_p2ulv7717 conn=wye bus1=p2ulv7717.1.2 kV=0.2080002494301389 Vminpu=0.8 Vmaxpu=1.2 model=1 kW=7.82008 kvar=1.5920221095849323 Phases=2

New Load.load_p2ulv7726 conn=wye bus1=p2ulv7726.1.2 kV=0.2080002494301389 Vminpu=0.8 Vmaxpu=1.2 model=1 kW=4.86005 kvar=0.9894153325398525 Phases=2

New Load.load_p2ulv7969 conn=wye bus1=p2ulv7969.1.2 kV=0.2080002494301389 Vminpu=0.8 Vmaxpu=1.2 model=1 kW=12.1901 kvar=2.4816764941089198 Phases=2

New Load.load_p2ulv8191 conn=wye bus1=p2ulv8191.1.2 kV=0.2080002494301389 Vminpu=0.8 Vmaxpu=1.2 model=1 kW=1.51002 kvar=0.5000604872179293 Phases=2

New Load.load_p2ulv8197 conn=wye bus1=p2ulv8197.1.2 kV=0.2080002494301389 Vminpu=0.8 Vmaxpu=1.2 model=1 kW=5.80006 kvar=1.1807837972142463 Phases=2

New Load.load_p2ulv8436 conn=wye bus1=p2ulv8436.1.2 kV=0.2080002494301389 Vminpu=0.8 Vmaxpu=1.2 model=1 kW=0.610006 kvar=0.20006601791341747 Phases=2

New Load.load_p2ulv8439 conn=wye bus1=p2ulv8439.1.2 kV=0.2080002494301389 Vminpu=0.8 Vmaxpu=1.2 model=1 kW=9.49009 kvar=1.932004928587798 Phases=2

New Load.load_p2ulv8645 conn=wye bus1=p2ulv8645.1.2 kV=0.2080002494301389 Vminpu=0.8 Vmaxpu=1.2 model=1 kW=6.33006 kvar=1.2886818900828627 Phases=2

New Load.load_p2ulv8649 conn=wye bus1=p2ulv8649.1.2 kV=0.2080002494301389 Vminpu=0.8 Vmaxpu=1.2 model=1 kW=14.2101 kvar=2.89291073485346 Phases=2

New Load.load_p2ulv8852 conn=wye bus1=p2ulv8852.1.2 kV=0.2080002494301389 Vminpu=0.8 Vmaxpu=1.2 model=1 kW=11.5501 kvar=2.351384457437382 Phases=2

New Load.load_p2ulv9090 conn=wye bus1=p2ulv9090.1.2 kV=0.2080002494301389 Vminpu=0.8 Vmaxpu=1.2 model=1 kW=6.91007 kvar=1.399529824114652 Phases=2

New Load.load_p2ulv9780 conn=wye bus1=p2ulv6008.1.2 kV=0.2080002494301389 Vminpu=0.8 Vmaxpu=1.2 model=1 kW=5.850060000000001 kvar=1.19096286257921 Phases=2

New Load.load_p2ulv9790 conn=wye bus1=p2ulv9790.1.2 kV=0.2080002494301389 Vminpu=0.8 Vmaxpu=1.2 model=1 kW=5.07005 kvar=1.0295175623474335 Phases=2

New Load.load_p2ulv10025 conn=wye bus1=p2ulv10025.1.2 kV=0.2080002494301389 Vminpu=0.8 Vmaxpu=1.2 model=1 kW=6.29006 kvar=1.280538637790892 Phases=2

New Load.load_p2ulv10027 conn=wye bus1=p2ulv10027.1.2 kV=0.2080002494301389 Vminpu=0.8 Vmaxpu=1.2 model=1 kW=4.840050000000001 kvar=0.9802786838926555 Phases=2

New Load.load_p2ulv10264 conn=wye bus1=p2ulv10264.1.2 kV=0.2080002494301389 Vminpu=0.8 Vmaxpu=1.2 model=1 kW=1.39001 kvar=0.4598269662194208 Phases=2

New Load.load_p2ulv10268 conn=wye bus1=p2ulv10268.1.2 kV=0.2080002494301389 Vminpu=0.8 Vmaxpu=1.2 model=1 kW=4.81005 kvar=0.9792362671748885 Phases=2

New Load.load_p2ulv10508 conn=wye bus1=p2ulv10508.1.2 kV=0.2080002494301389 Vminpu=0.8 Vmaxpu=1.2 model=1 kW=5.23005 kvar=1.059267265977166 Phases=2

New Load.load_p2ulv10509 conn=wye bus1=p2ulv10509.1.2 kV=0.2080002494301389 Vminpu=0.8 Vmaxpu=1.2 model=1 kW=3.09003 kvar=0.6306836979747686 Phases=2

New Load.load_p2ulv10510 conn=wye bus1=p2ulv10510.1.2 kV=0.2080002494301389 Vminpu=0.8 Vmaxpu=1.2 model=1 kW=5.37005 kvar=1.0904351605376348 Phases=2

New Load.load_p2ulv10511 conn=wye bus1=p2ulv10511.1.2 kV=0.2080002494301389 Vminpu=0.8 Vmaxpu=1.2 model=1 kW=3.25003 kvar=0.659946738820333 Phases=2

New Load.load_p2ulv10988 conn=wye bus1=p2ulv10988.1.2 kV=0.2080002494301389 Vminpu=0.8 Vmaxpu=1.2 model=1 kW=5.95006 kvar=1.2113209933091376 Phases=2

New Load.load_p2ulv10997 conn=wye bus1=p2ulv10997.1.2 kV=0.2080002494301389 Vminpu=0.8 Vmaxpu=1.2 model=1 kW=6.75007 kvar=1.3706601733857733 Phases=2

New Load.load_p2ulv10998 conn=wye bus1=p2ulv10998.1.2 kV=0.2080002494301389 Vminpu=0.8 Vmaxpu=1.2 model=1 kW=5.19005 kvar=1.7095675595388833 Phases=2

New Load.load_p2ulv11231 conn=wye bus1=p2ulv11231.1.2 kV=0.2080002494301389 Vminpu=0.8 Vmaxpu=1.2 model=1 kW=4.99005 kvar=1.0106589077713133 Phases=2

New Load.load_p2ulv11232 conn=wye bus1=p2ulv11232.1.2 kV=0.2080002494301389 Vminpu=0.8 Vmaxpu=1.2 model=1 kW=4.89005 kvar=0.9904054251855413 Phases=2

New Load.load_p2ulv11470 conn=wye bus1=p2ulv11470.1.2 kV=0.2080002494301389 Vminpu=0.8 Vmaxpu=1.2 model=1 kW=11.5201 kvar=2.3392560763697925 Phases=2

New Load.load_p2ulv11474 conn=wye bus1=p2ulv11474.1.2 kV=0.2080002494301389 Vminpu=0.8 Vmaxpu=1.2 model=1 kW=5.24005 kvar=1.0612926142357433 Phases=2

New Load.load_p2ulv11475 conn=wye bus1=p2ulv11475.1.2 kV=0.2080002494301389 Vminpu=0.8 Vmaxpu=1.2 model=1 kW=4.83005 kvar=0.9807834837952725 Phases=2

New Load.load_p2ulv11476 conn=wye bus1=p2ulv11476.1.2 kV=0.2080002494301389 Vminpu=0.8 Vmaxpu=1.2 model=1 kW=7.85008 kvar=1.5899145857691672 Phases=2

New Load.load_p2ulv11700 conn=wye bus1=p2ulv11700.1.2 kV=0.2080002494301389 Vminpu=0.8 Vmaxpu=1.2 model=1 kW=6.12006 kvar=1.239525286338795 Phases=2

New Load.load_p2ulv11703 conn=wye bus1=p2ulv11703.1.2 kV=0.2080002494301389 Vminpu=0.8 Vmaxpu=1.2 model=1 kW=6.060060000000001 kvar=1.2305476669617041 Phases=2

New Load.load_p2ulv11940 conn=wye bus1=p2ulv11940.1.2.3 kV=0.48 Vminpu=0.8 Vmaxpu=1.2 model=1 kW=24.960200000000004 kvar=8.204021002085462 Phases=3

New Load.load_p2ulv11946 conn=wye bus1=p2ulv11946.1.2 kV=0.2080002494301389 Vminpu=0.8 Vmaxpu=1.2 model=1 kW=10.3701 kvar=2.1111585148242353 Phases=2

New Load.load_p2ulv12163 conn=wye bus1=p2ulv12163.1.2 kV=0.2080002494301389 Vminpu=0.8 Vmaxpu=1.2 model=1 kW=0.620006 kvar=0.20002114980484142 Phases=2

New Load.load_p2ulv12168 conn=wye bus1=p2ulv12168.1.2 kV=0.2080002494301389 Vminpu=0.8 Vmaxpu=1.2 model=1 kW=15.0202 kvar=3.049981694454871 Phases=2

New Load.load_p2ulv12401 conn=wye bus1=p2ulv12401.1.2 kV=0.2080002494301389 Vminpu=0.8 Vmaxpu=1.2 model=1 kW=5.24005 kvar=1.0612926142357433 Phases=2

New Load.load_p2ulv12654 conn=wye bus1=p2ulv12654.1.2 kV=0.2080002494301389 Vminpu=0.8 Vmaxpu=1.2 model=1 kW=5.73006 kvar=1.1605367042542845 Phases=2

New Load.load_p2ulv12655 conn=wye bus1=p2ulv12655.1.2 kV=0.2080002494301389 Vminpu=0.8 Vmaxpu=1.2 model=1 kW=11.1401 kvar=2.2620937853288714 Phases=2

New Load.load_p2ulv12893 conn=wye bus1=p2ulv12893.1.2 kV=0.2080002494301389 Vminpu=0.8 Vmaxpu=1.2 model=1 kW=13.7401 kvar=2.7900463029772826 Phases=2

New Load.load_p2ulv12902 conn=wye bus1=p2ulv12902.1.2 kV=0.2080002494301389 Vminpu=0.8 Vmaxpu=1.2 model=1 kW=5.93006 kvar=1.2010436694258284 Phases=2

New Load.load_p2ulv12903 conn=wye bus1=p2ulv12903.1.2 kV=0.2080002494301389 Vminpu=0.8 Vmaxpu=1.2 model=1 kW=6.45006 kvar=1.3097405446089656 Phases=2

New Load.load_p2ulv13123 conn=wye bus1=p2ulv13123.1.2 kV=0.2080002494301389 Vminpu=0.8 Vmaxpu=1.2 model=1 kW=13.5301 kvar=2.747403984244141 Phases=2

New Load.load_p2ulv13128 conn=wye bus1=p2ulv13128.1.2 kV=0.2080002494301389 Vminpu=0.8 Vmaxpu=1.2 model=1 kW=2.93003 kvar=0.9599314984549403 Phases=2

New Load.load_p2ulv13372 conn=wye bus1=p2ulv13372.1.2 kV=0.2080002494301389 Vminpu=0.8 Vmaxpu=1.2 model=1 kW=7.80008 kvar=1.579787844476281 Phases=2

New Load.load_p2ulv13593 conn=wye bus1=p2ulv13593.1.2 kV=0.2080002494301389 Vminpu=0.8 Vmaxpu=1.2 model=1 kW=6.83007 kvar=1.3904745795455744 Phases=2

New Load.load_p2ulv13594 conn=wye bus1=p2ulv13594.1.2 kV=0.2080002494301389 Vminpu=0.8 Vmaxpu=1.2 model=1 kW=5.98006 kvar=1.2205468409403772 Phases=2

New Load.load_p2ulv13822 conn=wye bus1=p2ulv13822.1.2 kV=0.2080002494301389 Vminpu=0.8 Vmaxpu=1.2 model=1 kW=7.87008 kvar=1.5980879038824647 Phases=2

New Load.load_p2ulv13824 conn=wye bus1=p2ulv13824.1.2.3 kV=0.48 Vminpu=0.8 Vmaxpu=1.2 model=1 kW=26.320299999999996 kvar=8.65106425353923 Phases=3

New Load.load_p2ulv13825 conn=wye bus1=p2ulv13825.1.2 kV=0.2080002494301389 Vminpu=0.8 Vmaxpu=1.2 model=1 kW=2.36002 kvar=0.7698230155320472 Phases=2

New Load.load_p2ulv14033 conn=wye bus1=p2ulv14033.1.2 kV=0.2080002494301389 Vminpu=0.8 Vmaxpu=1.2 model=1 kW=9.9901 kvar=2.0285763255997664 Phases=2

New Load.load_p2ulv14040 conn=wye bus1=p2ulv14040.1.2 kV=0.2080002494301389 Vminpu=0.8 Vmaxpu=1.2 model=1 kW=1.16001 kvar=0.38004052433685503 Phases=2

New Load.load_p2ulv14046 conn=wye bus1=p2ulv14046.1.2 kV=0.2080002494301389 Vminpu=0.8 Vmaxpu=1.2 model=1 kW=6.41006 kvar=1.3016181981836055 Phases=2

New Load.load_p2ulv14245 conn=wye bus1=p2ulv14245.1.2 kV=0.2080002494301389 Vminpu=0.8 Vmaxpu=1.2 model=1 kW=8.81009 kvar=1.788965075465035 Phases=2

New Load.load_p2ulv14254 conn=wye bus1=p2ulv14254.1.2 kV=0.2080002494301389 Vminpu=0.8 Vmaxpu=1.2 model=1 kW=8.86009 kvar=1.799118008496735 Phases=2

New Load.load_p2ulv14464 conn=wye bus1=p2ulv14464.1.2 kV=0.2080002494301389 Vminpu=0.8 Vmaxpu=1.2 model=1 kW=5.14005 kvar=1.0410391316499712 Phases=2

New Load.load_p2ulv14707 conn=wye bus1=p2ulv14707.1.2 kV=0.2080002494301389 Vminpu=0.8 Vmaxpu=1.2 model=1 kW=4.670050000000001 kvar=0.9507348841529898 Phases=2

New Load.load_p2ulv14720 conn=wye bus1=p2ulv14720.1.2 kV=0.2080002494301389 Vminpu=0.8 Vmaxpu=1.2 model=1 kW=6.54007 kvar=1.3314360004287842 Phases=2

New Load.load_p2ulv14936 conn=wye bus1=p2ulv14936.1.2 kV=0.2080002494301389 Vminpu=0.8 Vmaxpu=1.2 model=1 kW=5.45005 kvar=1.109528303846426 Phases=2

New Load.load_p2ulv15162 conn=wye bus1=p2ulv15162.1.2 kV=0.2080002494301389 Vminpu=0.8 Vmaxpu=1.2 model=1 kW=3.09003 kvar=0.6306836979747686 Phases=2

New Load.load_p2ulv15164 conn=wye bus1=p2ulv15164.1.2 kV=0.2080002494301389 Vminpu=0.8 Vmaxpu=1.2 model=1 kW=5.98006 kvar=1.2111704107187142 Phases=2

New Load.load_p2ulv15391 conn=wye bus1=p2ulv15391.1.2 kV=0.2080002494301389 Vminpu=0.8 Vmaxpu=1.2 model=1 kW=10.010100000000001 kvar=3.2901607612509385 Phases=2

New Load.load_p2ulv15392 conn=wye bus1=p2ulv15392.1.2 kV=0.2080002494301389 Vminpu=0.8 Vmaxpu=1.2 model=1 kW=1.89002 kvar=0.6198771408424134 Phases=2

New Load.load_p2ulv15393 conn=wye bus1=p2ulv15393.1.2 kV=0.2080002494301389 Vminpu=0.8 Vmaxpu=1.2 model=1 kW=2.71003 kvar=0.5502950620779706 Phases=2

New Load.load_p2ulv15394 conn=wye bus1=p2ulv15394.1.2 kV=0.2080002494301389 Vminpu=0.8 Vmaxpu=1.2 model=1 kW=12.2001 kvar=2.477335965600916 Phases=2

New Load.load_p2ulv15398 conn=wye bus1=p2ulv15398.1.2 kV=0.2080002494301389 Vminpu=0.8 Vmaxpu=1.2 model=1 kW=5.26005 kvar=1.070847855459563 Phases=2

New Load.load_p2ulv15626 conn=wye bus1=p2ulv15626.1.2 kV=0.2080002494301389 Vminpu=0.8 Vmaxpu=1.2 model=1 kW=11.8801 kvar=3.9090141382598347 Phases=2

New Load.load_p2ulv15847 conn=wye bus1=p2ulv15847.1.2 kV=0.2080002494301389 Vminpu=0.8 Vmaxpu=1.2 model=1 kW=4.82005 kvar=0.9787528971889325 Phases=2

New Load.load_p2ulv15854 conn=wye bus1=p2ulv15854.1.2 kV=0.2080002494301389 Vminpu=0.8 Vmaxpu=1.2 model=1 kW=5.91006 kvar=1.200088867866603 Phases=2

New Load.load_p2ulv16330 conn=wye bus1=p2ulv16330.1.2 kV=0.2080002494301389 Vminpu=0.8 Vmaxpu=1.2 model=1 kW=6.28006 kvar=2.070833792868081 Phases=2

New Load.load_p2ulv16336 conn=wye bus1=p2ulv16336.1.2.3 kV=0.48 Vminpu=0.8 Vmaxpu=1.2 model=1 kW=37.0504 kvar=7.523404599954112 Phases=3

New Load.load_p2ulv16797 conn=wye bus1=p2ulv16797.1.2 kV=0.2080002494301389 Vminpu=0.8 Vmaxpu=1.2 model=1 kW=5.170050000000001 kvar=1.0498234284108339 Phases=2

New Load.load_p2ulv16798 conn=wye bus1=p2ulv16798.1.2 kV=0.2080002494301389 Vminpu=0.8 Vmaxpu=1.2 model=1 kW=3.09003 kvar=0.6306836979747686 Phases=2

New Load.load_p2ulv17044 conn=wye bus1=p2ulv17044.1.2 kV=0.2080002494301389 Vminpu=0.8 Vmaxpu=1.2 model=1 kW=1.70002 kvar=0.5599751529498352 Phases=2

New Load.load_p2ulv17045 conn=wye bus1=p2ulv17045.1.2 kV=0.2080002494301389 Vminpu=0.8 Vmaxpu=1.2 model=1 kW=6.28006 kvar=1.2785028247178991 Phases=2

New Load.load_p2ulv17244 conn=wye bus1=p2ulv17244.1.2 kV=0.2080002494301389 Vminpu=0.8 Vmaxpu=1.2 model=1 kW=14.170100000000001 kvar=2.877361527049904 Phases=2

New Load.load_p2ulv17697 conn=wye bus1=p2ulv17697.1.2 kV=0.2080002494301389 Vminpu=0.8 Vmaxpu=1.2 model=1 kW=6.34006 kvar=1.2907177031558559 Phases=2

New Load.load_p2ulv17918 conn=wye bus1=p2ulv17918.1.2 kV=0.2080002494301389 Vminpu=0.8 Vmaxpu=1.2 model=1 kW=6.26006 kvar=1.2711593990885048 Phases=2

New Load.load_p2ulv17920 conn=wye bus1=p2ulv17920.1.2 kV=0.2080002494301389 Vminpu=0.8 Vmaxpu=1.2 model=1 kW=6.44006 kvar=1.3110758338857833 Phases=2

New Load.load_p2ulv17921 conn=wye bus1=p2ulv17921.1.2 kV=0.2080002494301389 Vminpu=0.8 Vmaxpu=1.2 model=1 kW=6.01006 kvar=1.2203947339300039 Phases=2

New Load.load_p2ulv18143 conn=wye bus1=p2ulv18143.1.2.3 kV=0.48 Vminpu=0.8 Vmaxpu=1.2 model=1 kW=20.9102 kvar=4.245997205589156 Phases=3

New Load.load_p2ulv18371 conn=wye bus1=p2ulv18371.1.2 kV=0.2080002494301389 Vminpu=0.8 Vmaxpu=1.2 model=1 kW=16.8202 kvar=5.528532385929514 Phases=2

New Load.load_p2ulv18376 conn=wye bus1=p2ulv18376.1.2 kV=0.2080002494301389 Vminpu=0.8 Vmaxpu=1.2 model=1 kW=6.05006 kvar=1.2285170803553642 Phases=2

New Load.load_p2ulv18383 conn=wye bus1=p2ulv18383.1.2 kV=0.2080002494301389 Vminpu=0.8 Vmaxpu=1.2 model=1 kW=6.11006 kvar=1.2407005999934042 Phases=2

New Load.load_p2ulv18581 conn=wye bus1=p2ulv18581.1.2 kV=0.2080002494301389 Vminpu=0.8 Vmaxpu=1.2 model=1 kW=5.82006 kvar=1.1787648385814788 Phases=2

New Load.load_p2ulv19037 conn=wye bus1=p2ulv19037.1.2 kV=0.2080002494301389 Vminpu=0.8 Vmaxpu=1.2 model=1 kW=13.5001 kvar=2.741312224425122 Phases=2

New Load.load_p2ulv19040 conn=wye bus1=p2ulv19040.1.2 kV=0.2080002494301389 Vminpu=0.8 Vmaxpu=1.2 model=1 kW=5.33005 kvar=1.0795207485629381 Phases=2

New Load.load_p2ulv19261 conn=wye bus1=p2ulv19261.1.2.3 kV=0.48 Vminpu=0.8 Vmaxpu=1.2 model=1 kW=44.060399999999994 kvar=14.48195314782278 Phases=3

New Load.load_p2ulv19509 conn=wye bus1=p2ulv19509.1.2 kV=0.2080002494301389 Vminpu=0.8 Vmaxpu=1.2 model=1 kW=6.09006 kvar=1.2398223763310365 Phases=2

New Load.load_p2ulv19514 conn=wye bus1=p2ulv19514.1.2.3 kV=0.48 Vminpu=0.8 Vmaxpu=1.2 model=1 kW=25.280300000000004 kvar=5.13338385842582 Phases=3

New Load.load_p2ulv19519 conn=wye bus1=p2ulv19519.1.2 kV=0.2080002494301389 Vminpu=0.8 Vmaxpu=1.2 model=1 kW=5.82006 kvar=1.1787648385814788 Phases=2

New Load.load_p2ulv19739 conn=wye bus1=p2ulv19739.1.2 kV=0.2080002494301389 Vminpu=0.8 Vmaxpu=1.2 model=1 kW=6.45006 kvar=1.3097405446089656 Phases=2

New Load.load_p2ulv19745 conn=wye bus1=p2ulv19745.1.2 kV=0.2080002494301389 Vminpu=0.8 Vmaxpu=1.2 model=1 kW=0.160002 kvar=0.04998883485462587 Phases=2

New Load.load_p2ulv19746 conn=wye bus1=p2ulv19746.1.2 kV=0.2080002494301389 Vminpu=0.8 Vmaxpu=1.2 model=1 kW=4.76005 kvar=0.9690572018099246 Phases=2

New Load.load_p2ulv19961 conn=wye bus1=p2ulv19961.1.2 kV=0.2080002494301389 Vminpu=0.8 Vmaxpu=1.2 model=1 kW=3.65004 kvar=0.7392602157737106 Phases=2

New Load.load_p2ulv20171 conn=wye bus1=p2ulv20171.1.2 kV=0.2080002494301389 Vminpu=0.8 Vmaxpu=1.2 model=1 kW=6.20006 kvar=1.2589758794504644 Phases=2

New Load.load_p2ulv20182 conn=wye bus1=p2ulv20182.1.2 kV=0.2080002494301389 Vminpu=0.8 Vmaxpu=1.2 model=1 kW=5.83006 kvar=1.180790186840056 Phases=2

New Load.load_p2ulv20411 conn=wye bus1=p2ulv20411.1.2 kV=0.2080002494301389 Vminpu=0.8 Vmaxpu=1.2 model=1 kW=9.08009 kvar=1.8390344469224207 Phases=2

New Load.load_p2ulv20412 conn=wye bus1=p2ulv20412.1.2 kV=0.2080002494301389 Vminpu=0.8 Vmaxpu=1.2 model=1 kW=14.1401 kvar=2.871269767230884 Phases=2

New Load.load_p2ulv20416 conn=wye bus1=p2ulv20416.1.2 kV=0.2080002494301389 Vminpu=0.8 Vmaxpu=1.2 model=1 kW=5.20005 kvar=1.061344635376904 Phases=2

New Load.load_p2ulv20618 conn=wye bus1=p2ulv20618.1.2 kV=0.2080002494301389 Vminpu=0.8 Vmaxpu=1.2 model=1 kW=6.22006 kvar=1.2597787689245672 Phases=2

New Load.load_p2ulv20619 conn=wye bus1=p2ulv20619.1.2 kV=0.2080002494301389 Vminpu=0.8 Vmaxpu=1.2 model=1 kW=3.78004 kvar=1.2397542816848268 Phases=2

New Load.load_p2ulv20629 conn=wye bus1=p2ulv20629.1.2 kV=0.2080002494301389 Vminpu=0.8 Vmaxpu=1.2 model=1 kW=6.820070000000001 kvar=1.3813016897874575 Phases=2

New Load.load_p2ulv20844 conn=wye bus1=p2ulv20844.1.2 kV=0.2080002494301389 Vminpu=0.8 Vmaxpu=1.2 model=1 kW=7.36007 kvar=1.4906704957506258 Phases=2

New Load.load_p2ulv21049 conn=wye bus1=p2ulv21049.1.2 kV=0.2080002494301389 Vminpu=0.8 Vmaxpu=1.2 model=1 kW=5.73006 kvar=1.1605367042542845 Phases=2

New Load.load_p2ulv21268 conn=wye bus1=p2ulv21268.1.2 kV=0.2080002494301389 Vminpu=0.8 Vmaxpu=1.2 model=1 kW=6.79007 kvar=1.3787825198111334 Phases=2

New Load.load_p2ulv21275 conn=wye bus1=p2ulv21275.1.2 kV=0.2080002494301389 Vminpu=0.8 Vmaxpu=1.2 model=1 kW=2.33002 kvar=0.469460711936096 Phases=2

New Load.load_p2ulv21276 conn=wye bus1=p2ulv21276.1.2 kV=0.2080002494301389 Vminpu=0.8 Vmaxpu=1.2 model=1 kW=7.65008 kvar=1.549407620597623 Phases=2

New Load.load_p2ulv21507 conn=wye bus1=p2ulv21507.1.2 kV=0.2080002494301389 Vminpu=0.8 Vmaxpu=1.2 model=1 kW=6.11006 kvar=1.2407005999934042 Phases=2

New Load.load_p2ulv21515 conn=wye bus1=p2ulv21515.1.2 kV=0.2080002494301389 Vminpu=0.8 Vmaxpu=1.2 model=1 kW=4.97005 kvar=1.009211696284033 Phases=2

New Load.load_p2ulv21516 conn=wye bus1=p2ulv21516.1.2 kV=0.2080002494301389 Vminpu=0.8 Vmaxpu=1.2 model=1 kW=1.56002 kvar=0.5099805603374024 Phases=2

New Load.load_p2ulv21732 conn=wye bus1=p2ulv21732.1.2 kV=0.2080002494301389 Vminpu=0.8 Vmaxpu=1.2 model=1 kW=1.87002 kvar=0.6199384588504333 Phases=2

New Load.load_p2ulv21739 conn=wye bus1=p2ulv21739.1.2 kV=0.2080002494301389 Vminpu=0.8 Vmaxpu=1.2 model=1 kW=5.460050000000001 kvar=1.1087104399946952 Phases=2

New Load.load_p2ulv21967 conn=wye bus1=p2ulv21967.1.2 kV=0.2080002494301389 Vminpu=0.8 Vmaxpu=1.2 model=1 kW=6.33006 kvar=1.2886818900828627 Phases=2

New Load.load_p2ulv21980 conn=wye bus1=p2ulv21980.1.2 kV=0.2080002494301389 Vminpu=0.8 Vmaxpu=1.2 model=1 kW=3.20003 kvar=0.6497938057886328 Phases=2

New Load.load_p2ulv22203 conn=wye bus1=p2ulv22203.1.2 kV=0.2080002494301389 Vminpu=0.8 Vmaxpu=1.2 model=1 kW=8.19008 kvar=1.6587764265607916 Phases=2

New Load.load_p2ulv22213 conn=wye bus1=p2ulv22213.1.2 kV=0.2080002494301389 Vminpu=0.8 Vmaxpu=1.2 model=1 kW=11.590100000000001 kvar=2.3473988851735554 Phases=2

New Load.load_p2ulv22463 conn=wye bus1=p2ulv22463.1.2 kV=0.2080002494301389 Vminpu=0.8 Vmaxpu=1.2 model=1 kW=5.24005 kvar=1.0612926142357433 Phases=2

New Load.load_p2ulv22464 conn=wye bus1=p2ulv22464.1.2.3 kV=0.48 Vminpu=0.8 Vmaxpu=1.2 model=1 kW=29.140299999999996 kvar=5.9171902884730745 Phases=3

New Load.load_p2ulv22466 conn=wye bus1=p2ulv22466.1.2 kV=0.2080002494301389 Vminpu=0.8 Vmaxpu=1.2 model=1 kW=6.24006 kvar=1.270359572425928 Phases=2

New Load.load_p2ulv22667 conn=wye bus1=p2ulv22667.1.2 kV=0.2080002494301389 Vminpu=0.8 Vmaxpu=1.2 model=1 kW=11.7501 kvar=2.392100718897238 Phases=2

New Load.load_p2ulv22668 conn=wye bus1=p2ulv22668.1.2.3 kV=0.48 Vminpu=0.8 Vmaxpu=1.2 model=1 kW=189.21200000000002 kvar=38.421135295881214 Phases=3

New Load.load_p2ulv22672 conn=wye bus1=p2ulv22672.1.2 kV=0.2080002494301389 Vminpu=0.8 Vmaxpu=1.2 model=1 kW=7.80008 kvar=1.579787844476281 Phases=2

New Load.load_p2ulv22673 conn=wye bus1=p2ulv22673.1.2 kV=0.2080002494301389 Vminpu=0.8 Vmaxpu=1.2 model=1 kW=12.2801 kvar=2.4871479150153815 Phases=2

New Load.load_p2ulv23128 conn=wye bus1=p2ulv23128.1.2 kV=0.2080002494301389 Vminpu=0.8 Vmaxpu=1.2 model=1 kW=4.78005 kvar=0.9706305507635722 Phases=2

New Load.load_p2ulv23332 conn=wye bus1=p2ulv23332.1.2.3 kV=0.48 Vminpu=0.8 Vmaxpu=1.2 model=1 kW=33.1203 kvar=6.725363757796413 Phases=3

New Load.load_p2ulv23516 conn=wye bus1=p2ulv23516.1.2 kV=0.2080002494301389 Vminpu=0.8 Vmaxpu=1.2 model=1 kW=5.70006 kvar=1.1604256664843182 Phases=2

New Load.load_p2ulv24004 conn=wye bus1=p2ulv24004.1.2 kV=0.2080002494301389 Vminpu=0.8 Vmaxpu=1.2 model=1 kW=6.04006 kvar=1.2296433109660727 Phases=2

New Load.load_p2ulv24009 conn=wye bus1=p2ulv24009.1.2 kV=0.2080002494301389 Vminpu=0.8 Vmaxpu=1.2 model=1 kW=5.88006 kvar=1.1909169281329426 Phases=2

New Load.load_p2ulv24010 conn=wye bus1=p2ulv24010.1.2 kV=0.2080002494301389 Vminpu=0.8 Vmaxpu=1.2 model=1 kW=2.88003 kvar=0.5802786818127376 Phases=2

New Load.load_p2ulv24204 conn=wye bus1=p2ulv24204.1.2.3 kV=0.48 Vminpu=0.8 Vmaxpu=1.2 model=1 kW=21.5302 kvar=7.076634521321961 Phases=3

New Load.load_p2ulv24205 conn=wye bus1=p2ulv17697.1.2 kV=0.2080002494301389 Vminpu=0.8 Vmaxpu=1.2 model=1 kW=6.62007 kvar=1.3407947246159133 Phases=2

New Load.load_p2ulv24211 conn=wye bus1=p2ulv24211.1.2 kV=0.2080002494301389 Vminpu=0.8 Vmaxpu=1.2 model=1 kW=5.59006 kvar=1.1292468671581726 Phases=2

New Load.load_p2ulv24212 conn=wye bus1=p2ulv24212.1.2 kV=0.2080002494301389 Vminpu=0.8 Vmaxpu=1.2 model=1 kW=6.350060000000001 kvar=1.2894346785455655 Phases=2
