New Line.l(r:p1rdt91lv-p1rlv13868) Units=km Length=0.0117575 bus1=p1rdt91lv.1.2 bus2=p1rlv13868.1.2 switch=n enabled=y phases=2 Linecode=1P_OH_AL_2/0_Rucina_0_416_0_2_2_2_2_2_2_2_2_2_2_2_2_2_2_2_2_2_2_2_2_2_2_2_2_2_2_2_2_2

New Line.l(r:p1rdm224-p1rlv94) Units=km Length=0.0143155 bus1=p1rdm224.1.2 bus2=p1rlv94.1.2 switch=n enabled=y phases=2 Linecode=1P_OH_AL_2/0_Rucina_0_416_0_2_2_2_2_2_2_2_2_2_2_2_2_2_2_2_2_2_2_2_2_2_2_2_2_2_2_2_2_2

New Line.l(r:p1rdm224-p1rdt91lv) Units=km Length=0.0155318 bus1=p1rdt91lv.1.2 bus2=p1rdm224.1.2 switch=n enabled=y phases=2 Linecode=1P_OH_AL_2/0_Rucina_0_416_0_2_2_2_2_2_2_2_2_2_2_2_2_2_2_2_2_2_2_2_2_2_2_2_2_2_2_2_2_2

New Line.l(r:p1rdm225-p1rlv3975) Units=km Length=0.010409000000000002 bus1=p1rdm225.1.2 bus2=p1rlv3975.1.2 switch=n enabled=y phases=2 Linecode=1P_OH_AL_2/0_Rucina_0_416_0_2_2_2_2_2_2_2_2_2_2_2_2_2_2_2_2_2_2_2_2_2_2_2_2_2_2_2_2_2

New Line.l(r:p1rdm225-p1rdt91lv) Units=km Length=0.0182031 bus1=p1rdt91lv.1.2 bus2=p1rdm225.1.2 switch=n enabled=y phases=2 Linecode=1P_OH_AL_2/0_Rucina_0_416_0_2_2_2_2_2_2_2_2_2_2_2_2_2_2_2_2_2_2_2_2_2_2_2_2_2_2_2_2_2

New Line.l(r:p1rdt92lv-p1rlv3857) Units=km Length=0.0575915 bus1=p1rdt92lv.1.2 bus2=p1rlv3857.1.2 switch=n enabled=y phases=2 Linecode=1P_OH_AL_4/0_Zuzara_0_416_0_2_2_2_2_2_2_2_2_2_2_2_2_2_2_2_2_2_2_2_2_2_2_2_2_2_2_2_2_2

New Line.l(r:p1rdm227-p1rlv95) Units=km Length=0.0268135 bus1=p1rdm227.1.2 bus2=p1rlv95.1.2 switch=n enabled=y phases=2 Linecode=1P_OH_AL_2/0_Rucina_0_416_0_2_2_2_2_2_2_2_2_2_2_2_2_2_2_2_2_2_2_2_2_2_2_2_2_2_2_2_2_2

New Line.l(r:p1rdm227-p1rdt92lv) Units=km Length=0.018349 bus1=p1rdt92lv.1.2 bus2=p1rdm227.1.2 switch=n enabled=y phases=2 Linecode=1P_OH_AL_2/0_Rucina_0_416_0_2_2_2_2_2_2_2_2_2_2_2_2_2_2_2_2_2_2_2_2_2_2_2_2_2_2_2_2_2

New Line.l(r:p1rdm229-p1rlv10649) Units=km Length=0.0256651 bus1=p1rdm229.1.2 bus2=p1rlv10649.1.2 switch=n enabled=y phases=2 Linecode=1P_OH_AL_2/0_Rucina_0_416_0_2_2_2_2_2_2_2_2_2_2_2_2_2_2_2_2_2_2_2_2_2_2_2_2_2_2_2_2_2

New Line.l(r:p1rdm229-p1rdt92lv) Units=km Length=0.0183537 bus1=p1rdt92lv.1.2 bus2=p1rdm229.1.2 switch=n enabled=y phases=2 Linecode=1P_OH_AL_2/0_Rucina_0_416_0_2_2_2_2_2_2_2_2_2_2_2_2_2_2_2_2_2_2_2_2_2_2_2_2_2_2_2_2_2

New Line.l(r:p1rdt93lv-p1rlv96) Units=km Length=0.010754700000000002 bus1=p1rdt93lv.1.2 bus2=p1rlv96.1.2 switch=n enabled=y phases=2 Linecode=1P_OH_AL_2/0_Rucina_0_416_0_2_2_2_2_2_2_2_2_2_2_2_2_2_2_2_2_2_2_2_2_2_2_2_2_2_2_2_2_2

New Line.l(r:p1rdt93lv-p1rlv929) Units=km Length=0.010754700000000002 bus1=p1rdt93lv.1.2 bus2=p1rlv929.1.2 switch=n enabled=y phases=2 Linecode=1P_OH_AL_2/0_Rucina_0_416_0_2_2_2_2_2_2_2_2_2_2_2_2_2_2_2_2_2_2_2_2_2_2_2_2_2_2_2_2_2

New Line.l(r:p1rdt94lv-p1rlv97) Units=km Length=0.0227911 bus1=p1rdt94lv.1.2 bus2=p1rlv97.1.2 switch=n enabled=y phases=2 Linecode=1P_OH_AL_2/0_Rucina_0_416_0_2_2_2_2_2_2_2_2_2_2_2_2_2_2_2_2_2_2_2_2_2_2_2_2_2_2_2_2_2

New Line.l(r:p1rdt94lv-p1rlv11349) Units=km Length=0.0227911 bus1=p1rdt94lv.1.2 bus2=p1rlv11349.1.2 switch=n enabled=y phases=2 Linecode=1P_OH_AL_2/0_Rucina_0_416_0_2_2_2_2_2_2_2_2_2_2_2_2_2_2_2_2_2_2_2_2_2_2_2_2_2_2_2_2_2

New Line.l(r:p1rdt96lv-p1rlv99) Units=km Length=0.0474795 bus1=p1rdt96lv.1.2 bus2=p1rlv99.1.2 switch=n enabled=y phases=2 Linecode=1P_OH_AL_4/0_Zuzara_0_416_0_2_2_2_2_2_2_2_2_2_2_2_2_2_2_2_2_2_2_2_2_2_2_2_2_2_2_2_2_2

New Line.l(r:p1rdt227lv-p1rlv234) Units=km Length=0.0185268 bus1=p1rdt227lv.1.2 bus2=p1rlv234.1.2 switch=n enabled=y phases=2 Linecode=1P_OH_AL_2/0_Rucina_0_416_0_2_2_2_2_2_2_2_2_2_2_2_2_2_2_2_2_2_2_2_2_2_2_2_2_2_2_2_2_2

New Line.l(r:p1rdt230lv-p1rlv237) Units=km Length=0.0893503 bus1=p1rdt230lv.1.2 bus2=p1rlv237.1.2 switch=n enabled=y phases=2 Linecode=1P_OH_AL_4/0_Zuzara_0_416_0_2_2_2_2_2_2_2_2_2_2_2_2_2_2_2_2_2_2_2_2_2_2_2_2_2_2_2_2_2

New Line.l(r:p1rdt231lv-p1rlv238) Units=km Length=0.001 bus1=p1rdt231lv.1.2 bus2=p1rlv238.1.2 switch=n enabled=y phases=2 Linecode=1P_OH_AL_4_Periwinkle_0_416_0_2_2_2_2_2_2_2_2_2_2_2_2_2_2_2_2_2_2_2_2_2_2_2_2_2_2_2_2_2

New Line.l(r:p1rdt232lv-p1rlv8781) Units=km Length=0.0759126 bus1=p1rdt232lv.1.2 bus2=p1rlv8781.1.2 switch=n enabled=y phases=2 Linecode=1P_UG_AL_1/0_Brenau_0_416_0_2_2_2_2_2_2_2_2_2_2_2_2_2_2_2_2_2_2_2_2_2_2_2_2_2_2_2_2_2

New Line.l(r:p1rdt232lv-p1rlv12854) Units=km Length=0.08790180000000002 bus1=p1rdt232lv.1.2 bus2=p1rlv12854.1.2 switch=n enabled=y phases=2 Linecode=1P_UG_AL_1/0_Brenau_0_416_0_2_2_2_2_2_2_2_2_2_2_2_2_2_2_2_2_2_2_2_2_2_2_2_2_2_2_2_2_2

New Line.l(r:p1rdm551-p1rlv239) Units=km Length=0.0651345 bus1=p1rdm551.1.2 bus2=p1rlv239.1.2 switch=n enabled=y phases=2 Linecode=1P_UG_AL_1/0_Brenau_0_416_0_2_2_2_2_2_2_2_2_2_2_2_2_2_2_2_2_2_2_2_2_2_2_2_2_2_2_2_2_2

New Line.l(r:p1rdm551-p1rdt232lv) Units=km Length=0.0299038 bus1=p1rdt232lv.1.2 bus2=p1rdm551.1.2 switch=n enabled=y phases=2 Linecode=1P_UG_AL_1/0_Brenau_0_416_0_2_2_2_2_2_2_2_2_2_2_2_2_2_2_2_2_2_2_2_2_2_2_2_2_2_2_2_2_2

New Line.l(r:p1rdm554-p1rlv9991) Units=km Length=0.0450887 bus1=p1rdm554.1.2 bus2=p1rlv9991.1.2 switch=n enabled=y phases=2 Linecode=1P_UG_AL_1/0_Brenau_0_416_0_2_2_2_2_2_2_2_2_2_2_2_2_2_2_2_2_2_2_2_2_2_2_2_2_2_2_2_2_2

New Line.l(r:p1rdm552-p1rlv5222) Units=km Length=0.0569164 bus1=p1rdm552.1.2 bus2=p1rlv5222.1.2 switch=n enabled=y phases=2 Linecode=1P_UG_AL_1/0_Brenau_0_416_0_2_2_2_2_2_2_2_2_2_2_2_2_2_2_2_2_2_2_2_2_2_2_2_2_2_2_2_2_2

New Line.l(r:p1rdm552-p1rdm554) Units=km Length=0.009975370000000002 bus1=p1rdm554.1.2 bus2=p1rdm552.1.2 switch=n enabled=y phases=2 Linecode=1P_UG_AL_1/0_Brenau_0_416_0_2_2_2_2_2_2_2_2_2_2_2_2_2_2_2_2_2_2_2_2_2_2_2_2_2_2_2_2_2

New Line.l(r:p1rdm554-p1rdt232lv) Units=km Length=0.009975370000000002 bus1=p1rdt232lv.1.2 bus2=p1rdm554.1.2 switch=n enabled=y phases=2 Linecode=1P_UG_AL_1/0_Brenau_0_416_0_2_2_2_2_2_2_2_2_2_2_2_2_2_2_2_2_2_2_2_2_2_2_2_2_2_2_2_2_2

New Line.l(r:p1rdt361lv-p1rlv370) Units=km Length=0.0147629 bus1=p1rdt361lv.1.2 bus2=p1rlv370.1.2 switch=n enabled=y phases=2 Linecode=1P_OH_AL_2/0_Rucina_0_416_0_2_2_2_2_2_2_2_2_2_2_2_2_2_2_2_2_2_2_2_2_2_2_2_2_2_2_2_2_2

New Line.l(r:p1rdm858-p1rlv8778) Units=km Length=0.0133929 bus1=p1rdm858.1.2 bus2=p1rlv8778.1.2 switch=n enabled=y phases=2 Linecode=1P_OH_AL_2/0_Rucina_0_416_0_2_2_2_2_2_2_2_2_2_2_2_2_2_2_2_2_2_2_2_2_2_2_2_2_2_2_2_2_2

New Line.l(r:p1rdm857-p1rlv7600) Units=km Length=0.00862701 bus1=p1rdm857.1.2 bus2=p1rlv7600.1.2 switch=n enabled=y phases=2 Linecode=1P_OH_AL_2/0_Rucina_0_416_0_2_2_2_2_2_2_2_2_2_2_2_2_2_2_2_2_2_2_2_2_2_2_2_2_2_2_2_2_2

New Line.l(r:p1rdm857-p1rdm858) Units=km Length=0.0125137 bus1=p1rdm858.1.2 bus2=p1rdm857.1.2 switch=n enabled=y phases=2 Linecode=1P_OH_AL_2/0_Rucina_0_416_0_2_2_2_2_2_2_2_2_2_2_2_2_2_2_2_2_2_2_2_2_2_2_2_2_2_2_2_2_2

New Line.l(r:p1rdm858-p1rdt361lv) Units=km Length=0.012521200000000001 bus1=p1rdt361lv.1.2 bus2=p1rdm858.1.2 switch=n enabled=y phases=2 Linecode=1P_OH_AL_2/0_Rucina_0_416_0_2_2_2_2_2_2_2_2_2_2_2_2_2_2_2_2_2_2_2_2_2_2_2_2_2_2_2_2_2

New Line.l(r:p1rdm859-p1rlv11084) Units=km Length=0.0181288 bus1=p1rdm859.1.2 bus2=p1rlv11084.1.2 switch=n enabled=y phases=2 Linecode=1P_OH_AL_2/0_Rucina_0_416_0_2_2_2_2_2_2_2_2_2_2_2_2_2_2_2_2_2_2_2_2_2_2_2_2_2_2_2_2_2

New Line.l(r:p1rdm859-p1rdt361lv) Units=km Length=0.0186067 bus1=p1rdt361lv.1.2 bus2=p1rdm859.1.2 switch=n enabled=y phases=2 Linecode=1P_OH_AL_2/0_Rucina_0_416_0_2_2_2_2_2_2_2_2_2_2_2_2_2_2_2_2_2_2_2_2_2_2_2_2_2_2_2_2_2

New Line.l(r:p1rdt481lv-p1rlv493) Units=km Length=0.0278097 bus1=p1rdt481lv.1.2 bus2=p1rlv493.1.2 switch=n enabled=y phases=2 Linecode=1P_OH_AL_4/0_Zuzara_0_416_0_2_2_2_2_2_2_2_2_2_2_2_2_2_2_2_2_2_2_2_2_2_2_2_2_2_2_2_2_2

New Line.l(r:p1rdm1137-p1rlv4404) Units=km Length=0.0319083 bus1=p1rdm1137.1.2 bus2=p1rlv4404.1.2 switch=n enabled=y phases=2 Linecode=1P_OH_AL_4/0_Zuzara_0_416_0_2_2_2_2_2_2_2_2_2_2_2_2_2_2_2_2_2_2_2_2_2_2_2_2_2_2_2_2_2

New Line.l(r:p1rdm1137-p1rdt481lv) Units=km Length=0.0182145 bus1=p1rdt481lv.1.2 bus2=p1rdm1137.1.2 switch=n enabled=y phases=2 Linecode=1P_OH_AL_2/0_Rucina_0_416_0_2_2_2_2_2_2_2_2_2_2_2_2_2_2_2_2_2_2_2_2_2_2_2_2_2_2_2_2_2

New Line.l(r:p1rdt482lv-p1rlv1467) Units=km Length=0.0891387 bus1=p1rdt482lv.1.2 bus2=p1rlv1467.1.2 switch=n enabled=y phases=2 Linecode=1P_UG_AL_4/0_Sweetbriar_0_416_0_2_2_2_2_2_2_2_2_2_2_2_2_2_2_2_2_2_2_2_2_2_2_2_2_2_2_2_2_2

New Line.l(r:p1rdt482lv-p1rlv4842) Units=km Length=0.0698552 bus1=p1rdt482lv.1.2 bus2=p1rlv4842.1.2 switch=n enabled=y phases=2 Linecode=1P_UG_AL_1/0_Brenau_0_416_0_2_2_2_2_2_2_2_2_2_2_2_2_2_2_2_2_2_2_2_2_2_2_2_2_2_2_2_2_2

New Line.l(r:p1rdm1138-p1rlv494) Units=km Length=0.128828 bus1=p1rdm1138.1.2 bus2=p1rlv494.1.2 switch=n enabled=y phases=2 Linecode=1P_UG_AL_4/0_Sweetbriar_0_416_0_2_2_2_2_2_2_2_2_2_2_2_2_2_2_2_2_2_2_2_2_2_2_2_2_2_2_2_2_2

New Line.l(r:p1rdm1138-p1rdt482lv) Units=km Length=0.00993399 bus1=p1rdt482lv.1.2 bus2=p1rdm1138.1.2 switch=n enabled=y phases=2 Linecode=1P_UG_AL_4/0_Sweetbriar_0_416_0_2_2_2_2_2_2_2_2_2_2_2_2_2_2_2_2_2_2_2_2_2_2_2_2_2_2_2_2_2

New Line.l(r:p1rdt612lv-p1rlv629) Units=km Length=0.00820588 bus1=p1rdt612lv.1.2 bus2=p1rlv629.1.2 switch=n enabled=y phases=2 Linecode=1P_OH_AL_2/0_Rucina_0_416_0_2_2_2_2_2_2_2_2_2_2_2_2_2_2_2_2_2_2_2_2_2_2_2_2_2_2_2_2_2

New Line.l(r:p1rdt612lv-p1rlv10650) Units=km Length=0.00820588 bus1=p1rdt612lv.1.2 bus2=p1rlv10650.1.2 switch=n enabled=y phases=2 Linecode=1P_OH_AL_2/0_Rucina_0_416_0_2_2_2_2_2_2_2_2_2_2_2_2_2_2_2_2_2_2_2_2_2_2_2_2_2_2_2_2_2

New Line.l(r:p1rdt613lv-p1rlv630) Units=km Length=0.0208756 bus1=p1rdt613lv.1.2 bus2=p1rlv630.1.2 switch=n enabled=y phases=2 Linecode=1P_UG_AL_1/0_Brenau_0_416_0_2_2_2_2_2_2_2_2_2_2_2_2_2_2_2_2_2_2_2_2_2_2_2_2_2_2_2_2_2

New Line.l(r:p1rdt613lv-p1rlv2922) Units=km Length=0.0359772 bus1=p1rdt613lv.1.2 bus2=p1rlv2922.1.2 switch=n enabled=y phases=2 Linecode=1P_UG_AL_1/0_Brenau_0_416_0_2_2_2_2_2_2_2_2_2_2_2_2_2_2_2_2_2_2_2_2_2_2_2_2_2_2_2_2_2

New Line.l(r:p1rdt613lv-p1rlv5494) Units=km Length=0.004446360000000001 bus1=p1rdt613lv.1.2 bus2=p1rlv5494.1.2 switch=n enabled=y phases=2 Linecode=1P_UG_AL_1/0_Brenau_0_416_0_2_2_2_2_2_2_2_2_2_2_2_2_2_2_2_2_2_2_2_2_2_2_2_2_2_2_2_2_2

New Line.l(r:p1rdt613lv-p1rlv10253) Units=km Length=0.0573758 bus1=p1rdt613lv.1.2 bus2=p1rlv10253.1.2 switch=n enabled=y phases=2 Linecode=1P_UG_AL_1/0_Brenau_0_416_0_2_2_2_2_2_2_2_2_2_2_2_2_2_2_2_2_2_2_2_2_2_2_2_2_2_2_2_2_2

New Line.l(r:p1rdt614lv-p1rlv631) Units=km Length=0.0489875 bus1=p1rdt614lv.1.2 bus2=p1rlv631.1.2 switch=n enabled=y phases=2 Linecode=1P_OH_AL_4/0_Zuzara_0_416_0_2_2_2_2_2_2_2_2_2_2_2_2_2_2_2_2_2_2_2_2_2_2_2_2_2_2_2_2_2

New Line.l(r:p1rdm1425-p1rlv10932) Units=km Length=0.0495329 bus1=p1rdm1425.1.2 bus2=p1rlv10932.1.2 switch=n enabled=y phases=2 Linecode=1P_OH_AL_4/0_Zuzara_0_416_0_2_2_2_2_2_2_2_2_2_2_2_2_2_2_2_2_2_2_2_2_2_2_2_2_2_2_2_2_2

New Line.l(r:p1rdm1425-p1rdt614lv) Units=km Length=0.0199035 bus1=p1rdt614lv.1.2 bus2=p1rdm1425.1.2 switch=n enabled=y phases=2 Linecode=1P_OH_AL_2/0_Rucina_0_416_0_2_2_2_2_2_2_2_2_2_2_2_2_2_2_2_2_2_2_2_2_2_2_2_2_2_2_2_2_2

New Line.l(r:p1rdt756lv-p1rlv789) Units=km Length=0.0260933 bus1=p1rdt756lv.1.2 bus2=p1rlv789.1.2 switch=n enabled=y phases=2 Linecode=1P_OH_AL_2/0_Rucina_0_416_0_2_2_2_2_2_2_2_2_2_2_2_2_2_2_2_2_2_2_2_2_2_2_2_2_2_2_2_2_2

New Line.l(r:p1rdt756lv-p1rlv9045) Units=km Length=0.0260933 bus1=p1rdt756lv.1.2 bus2=p1rlv9045.1.2 switch=n enabled=y phases=2 Linecode=1P_OH_AL_2/0_Rucina_0_416_0_2_2_2_2_2_2_2_2_2_2_2_2_2_2_2_2_2_2_2_2_2_2_2_2_2_2_2_2_2

New Line.l(r:p1rdt759lv-p1rlv792) Units=km Length=0.0534464 bus1=p1rdt759lv.1.2 bus2=p1rlv792.1.2 switch=n enabled=y phases=2 Linecode=1P_OH_AL_4/0_Zuzara_0_416_0_2_2_2_2_2_2_2_2_2_2_2_2_2_2_2_2_2_2_2_2_2_2_2_2_2_2_2_2_2

New Line.l(r:p1rdt760lv-p1rlv793) Units=km Length=0.0952466 bus1=p1rdt760lv.1.2 bus2=p1rlv793.1.2 switch=n enabled=y phases=2 Linecode=1P_OH_AL_4/0_Zuzara_0_416_0_2_2_2_2_2_2_2_2_2_2_2_2_2_2_2_2_2_2_2_2_2_2_2_2_2_2_2_2_2

New Line.l(r:p1rdt761lv-p1rlv794) Units=km Length=0.0150107 bus1=p1rdt761lv.1.2 bus2=p1rlv794.1.2 switch=n enabled=y phases=2 Linecode=1P_UG_AL_1/0_Brenau_0_416_0_2_2_2_2_2_2_2_2_2_2_2_2_2_2_2_2_2_2_2_2_2_2_2_2_2_2_2_2_2

New Line.l(r:p1rdt761lv-p1rlv8123) Units=km Length=0.0150107 bus1=p1rdt761lv.1.2 bus2=p1rlv8123.1.2 switch=n enabled=y phases=2 Linecode=1P_UG_AL_1/0_Brenau_0_416_0_2_2_2_2_2_2_2_2_2_2_2_2_2_2_2_2_2_2_2_2_2_2_2_2_2_2_2_2_2

New Line.l(r:p1rdt884lv-p1rlv930) Units=km Length=0.0214188 bus1=p1rdt884lv.1.2 bus2=p1rlv930.1.2 switch=n enabled=y phases=2 Linecode=1P_OH_AL_2/0_Rucina_0_416_0_2_2_2_2_2_2_2_2_2_2_2_2_2_2_2_2_2_2_2_2_2_2_2_2_2_2_2_2_2

New Line.l(r:p1rdt884lv-p1rlv13746) Units=km Length=0.0214188 bus1=p1rdt884lv.1.2 bus2=p1rlv13746.1.2 switch=n enabled=y phases=2 Linecode=1P_OH_AL_2/0_Rucina_0_416_0_2_2_2_2_2_2_2_2_2_2_2_2_2_2_2_2_2_2_2_2_2_2_2_2_2_2_2_2_2

New Line.l(r:p1rdt885lv-p1rlv931) Units=km Length=0.001 bus1=p1rdt885lv.1.2 bus2=p1rlv931.1.2 switch=n enabled=y phases=2 Linecode=1P_OH_AL_4_Periwinkle_0_416_0_2_2_2_2_2_2_2_2_2_2_2_2_2_2_2_2_2_2_2_2_2_2_2_2_2_2_2_2_2

New Line.l(r:p1rdm2267-p1rlv1059) Units=km Length=0.00606274 bus1=p1rdm2267.1.2 bus2=p1rlv1059.1.2 switch=n enabled=y phases=2 Linecode=1P_OH_AL_2/0_Rucina_0_416_0_2_2_2_2_2_2_2_2_2_2_2_2_2_2_2_2_2_2_2_2_2_2_2_2_2_2_2_2_2

New Line.l(r:p1rdm2268-p1rlv3444) Units=km Length=0.011977500000000002 bus1=p1rdm2268.1.2 bus2=p1rlv3444.1.2 switch=n enabled=y phases=2 Linecode=1P_OH_AL_2/0_Rucina_0_416_0_2_2_2_2_2_2_2_2_2_2_2_2_2_2_2_2_2_2_2_2_2_2_2_2_2_2_2_2_2

New Line.l(r:p1rdm2267-p1rdm2268) Units=km Length=0.0133466 bus1=p1rdm2267.1.2 bus2=p1rdm2268.1.2 switch=n enabled=y phases=2 Linecode=1P_OH_AL_2/0_Rucina_0_416_0_2_2_2_2_2_2_2_2_2_2_2_2_2_2_2_2_2_2_2_2_2_2_2_2_2_2_2_2_2

New Line.l(r:p1rdm2267-p1rdt1006lv) Units=km Length=0.016955300000000003 bus1=p1rdt1006lv.1.2 bus2=p1rdm2267.1.2 switch=n enabled=y phases=2 Linecode=1P_OH_AL_2/0_Rucina_0_416_0_2_2_2_2_2_2_2_2_2_2_2_2_2_2_2_2_2_2_2_2_2_2_2_2_2_2_2_2_2

New Line.l(r:p1rdm2270-p1rlv12709) Units=km Length=0.00763273 bus1=p1rdm2270.1.2 bus2=p1rlv12709.1.2 switch=n enabled=y phases=2 Linecode=1P_OH_AL_2/0_Rucina_0_416_0_2_2_2_2_2_2_2_2_2_2_2_2_2_2_2_2_2_2_2_2_2_2_2_2_2_2_2_2_2

New Line.l(r:p1rdm2269-p1rlv9043) Units=km Length=0.00545059 bus1=p1rdm2269.1.2 bus2=p1rlv9043.1.2 switch=n enabled=y phases=2 Linecode=1P_OH_AL_2/0_Rucina_0_416_0_2_2_2_2_2_2_2_2_2_2_2_2_2_2_2_2_2_2_2_2_2_2_2_2_2_2_2_2_2

New Line.l(r:p1rdm2269-p1rdm2270) Units=km Length=0.017292 bus1=p1rdm2270.1.2 bus2=p1rdm2269.1.2 switch=n enabled=y phases=2 Linecode=1P_OH_AL_2/0_Rucina_0_416_0_2_2_2_2_2_2_2_2_2_2_2_2_2_2_2_2_2_2_2_2_2_2_2_2_2_2_2_2_2

New Line.l(r:p1rdm2270-p1rdt1006lv) Units=km Length=0.036727600000000006 bus1=p1rdt1006lv.1.2 bus2=p1rdm2270.1.2 switch=n enabled=y phases=2 Linecode=1P_OH_AL_4/0_Zuzara_0_416_0_2_2_2_2_2_2_2_2_2_2_2_2_2_2_2_2_2_2_2_2_2_2_2_2_2_2_2_2_2

New Line.l(r:p1rdt1007lv-p1rlv1060) Units=km Length=0.0177442 bus1=p1rdt1007lv.1.2 bus2=p1rlv1060.1.2 switch=n enabled=y phases=2 Linecode=1P_OH_AL_2/0_Rucina_0_416_0_2_2_2_2_2_2_2_2_2_2_2_2_2_2_2_2_2_2_2_2_2_2_2_2_2_2_2_2_2

New Line.l(r:p1rdt1007lv-p1rlv3594) Units=km Length=0.0177442 bus1=p1rdt1007lv.1.2 bus2=p1rlv3594.1.2 switch=n enabled=y phases=2 Linecode=1P_OH_AL_2/0_Rucina_0_416_0_2_2_2_2_2_2_2_2_2_2_2_2_2_2_2_2_2_2_2_2_2_2_2_2_2_2_2_2_2

New Line.l(r:p1rdt1008lv-p1rlv1061) Units=km Length=0.001 bus1=p1rdt1008lv.1.2 bus2=p1rlv1061.1.2 switch=n enabled=y phases=2 Linecode=1P_UG_AL_1/0_Brenau_0_416_0_2_2_2_2_2_2_2_2_2_2_2_2_2_2_2_2_2_2_2_2_2_2_2_2_2_2_2_2_2

New Line.l(r:p1rdt1114lv-p1rlv1177) Units=km Length=0.0372512 bus1=p1rdt1114lv.1.2 bus2=p1rlv1177.1.2 switch=n enabled=y phases=2 Linecode=1P_OH_AL_4/0_Zuzara_0_416_0_2_2_2_2_2_2_2_2_2_2_2_2_2_2_2_2_2_2_2_2_2_2_2_2_2_2_2_2_2

New Line.l(r:p1rdm2484-p1rlv1178) Units=km Length=0.0691526 bus1=p1rdm2484.1.2 bus2=p1rlv1178.1.2 switch=n enabled=y phases=2 Linecode=1P_OH_AL_4/0_Zuzara_0_416_0_2_2_2_2_2_2_2_2_2_2_2_2_2_2_2_2_2_2_2_2_2_2_2_2_2_2_2_2_2

New Line.l(r:p1rdm2484-p1rlv10512) Units=km Length=0.0911663 bus1=p1rdm2484.1.2 bus2=p1rlv10512.1.2 switch=n enabled=y phases=2 Linecode=1P_OH_AL_4/0_Zuzara_0_416_0_2_2_2_2_2_2_2_2_2_2_2_2_2_2_2_2_2_2_2_2_2_2_2_2_2_2_2_2_2

New Line.l(r:p1rdm2484-p1rdt1115lv) Units=km Length=0.0190752 bus1=p1rdt1115lv.1.2 bus2=p1rdm2484.1.2 switch=n enabled=y phases=2 Linecode=1P_OH_AL_2/0_Rucina_0_416_0_2_2_2_2_2_2_2_2_2_2_2_2_2_2_2_2_2_2_2_2_2_2_2_2_2_2_2_2_2

New Line.l(r:p1rdm2486-p1rlv10251) Units=km Length=0.096989 bus1=p1rdm2486.1.2 bus2=p1rlv10251.1.2 switch=n enabled=y phases=2 Linecode=1P_OH_AL_4/0_Zuzara_0_416_0_2_2_2_2_2_2_2_2_2_2_2_2_2_2_2_2_2_2_2_2_2_2_2_2_2_2_2_2_2

New Line.l(r:p1rdm2485-p1rlv2921) Units=km Length=0.08116520000000002 bus1=p1rdm2485.1.2 bus2=p1rlv2921.1.2 switch=n enabled=y phases=2 Linecode=1P_OH_AL_4/0_Zuzara_0_416_0_2_2_2_2_2_2_2_2_2_2_2_2_2_2_2_2_2_2_2_2_2_2_2_2_2_2_2_2_2

New Line.l(r:p1rdm2485-p1rdm2486) Units=km Length=0.0190664 bus1=p1rdm2486.1.2 bus2=p1rdm2485.1.2 switch=n enabled=y phases=2 Linecode=1P_OH_AL_2/0_Rucina_0_416_0_2_2_2_2_2_2_2_2_2_2_2_2_2_2_2_2_2_2_2_2_2_2_2_2_2_2_2_2_2

New Line.l(r:p1rdm2486-p1rdt1115lv) Units=km Length=0.019061800000000004 bus1=p1rdt1115lv.1.2 bus2=p1rdm2486.1.2 switch=n enabled=y phases=2 Linecode=1P_OH_AL_2/0_Rucina_0_416_0_2_2_2_2_2_2_2_2_2_2_2_2_2_2_2_2_2_2_2_2_2_2_2_2_2_2_2_2_2

New Line.l(r:p1rdt1116lv-p1rlv1179) Units=km Length=0.0280434 bus1=p1rdt1116lv.1.2 bus2=p1rlv1179.1.2 switch=n enabled=y phases=2 Linecode=1P_OH_AL_4/0_Zuzara_0_416_0_2_2_2_2_2_2_2_2_2_2_2_2_2_2_2_2_2_2_2_2_2_2_2_2_2_2_2_2_2

New Line.l(r:p1rdt1116lv-p1rlv2802) Units=km Length=0.0280434 bus1=p1rdt1116lv.1.2 bus2=p1rlv2802.1.2 switch=n enabled=y phases=2 Linecode=1P_OH_AL_4/0_Zuzara_0_416_0_2_2_2_2_2_2_2_2_2_2_2_2_2_2_2_2_2_2_2_2_2_2_2_2_2_2_2_2_2

New Line.l(r:p1rdm2490-p1rlv1180) Units=km Length=0.0168907 bus1=p1rdm2490.1.2 bus2=p1rlv1180.1.2 switch=n enabled=y phases=2 Linecode=1P_OH_AL_2/0_Rucina_0_416_0_2_2_2_2_2_2_2_2_2_2_2_2_2_2_2_2_2_2_2_2_2_2_2_2_2_2_2_2_2

New Line.l(r:p1rdm2490-p1rdt1117lv) Units=km Length=0.0194505 bus1=p1rdt1117lv.1.2 bus2=p1rdm2490.1.2 switch=n enabled=y phases=2 Linecode=1P_OH_AL_2/0_Rucina_0_416_0_2_2_2_2_2_2_2_2_2_2_2_2_2_2_2_2_2_2_2_2_2_2_2_2_2_2_2_2_2

New Line.l(r:p1rdm2491-p1rlv5616) Units=km Length=0.034237 bus1=p1rdm2491.1.2 bus2=p1rlv5616.1.2 switch=n enabled=y phases=2 Linecode=1P_OH_AL_4/0_Zuzara_0_416_0_2_2_2_2_2_2_2_2_2_2_2_2_2_2_2_2_2_2_2_2_2_2_2_2_2_2_2_2_2

New Line.l(r:p1rdm2491-p1rdt1117lv) Units=km Length=0.0194505 bus1=p1rdt1117lv.1.2 bus2=p1rdm2491.1.2 switch=n enabled=y phases=2 Linecode=1P_OH_AL_2/0_Rucina_0_416_0_2_2_2_2_2_2_2_2_2_2_2_2_2_2_2_2_2_2_2_2_2_2_2_2_2_2_2_2_2

New Line.l(r:p1rdt1118lv-p1rlv1181) Units=km Length=0.045639 bus1=p1rdt1118lv.1.2 bus2=p1rlv1181.1.2 switch=n enabled=y phases=2 Linecode=1P_OH_AL_4/0_Zuzara_0_416_0_2_2_2_2_2_2_2_2_2_2_2_2_2_2_2_2_2_2_2_2_2_2_2_2_2_2_2_2_2

New Line.l(r:p1rdm2493-p1rlv1182) Units=km Length=0.0463118 bus1=p1rdm2493.1.2 bus2=p1rlv1182.1.2 switch=n enabled=y phases=2 Linecode=1P_OH_AL_4/0_Zuzara_0_416_0_2_2_2_2_2_2_2_2_2_2_2_2_2_2_2_2_2_2_2_2_2_2_2_2_2_2_2_2_2

New Line.l(r:p1rdm2493-p1rdt1119lv) Units=km Length=0.0199706 bus1=p1rdt1119lv.1.2 bus2=p1rdm2493.1.2 switch=n enabled=y phases=2 Linecode=1P_OH_AL_2/0_Rucina_0_416_0_2_2_2_2_2_2_2_2_2_2_2_2_2_2_2_2_2_2_2_2_2_2_2_2_2_2_2_2_2

New Line.l(r:p1rdm2494-p1rlv7602) Units=km Length=0.037790300000000006 bus1=p1rdm2494.1.2 bus2=p1rlv7602.1.2 switch=n enabled=y phases=2 Linecode=1P_OH_AL_4/0_Zuzara_0_416_0_2_2_2_2_2_2_2_2_2_2_2_2_2_2_2_2_2_2_2_2_2_2_2_2_2_2_2_2_2

New Line.l(r:p1rdm2494-p1rdt1119lv) Units=km Length=0.0199706 bus1=p1rdt1119lv.1.2 bus2=p1rdm2494.1.2 switch=n enabled=y phases=2 Linecode=1P_OH_AL_2/0_Rucina_0_416_0_2_2_2_2_2_2_2_2_2_2_2_2_2_2_2_2_2_2_2_2_2_2_2_2_2_2_2_2_2

New Line.l(r:p1rdm2497-p1rlv1185) Units=km Length=0.0213309 bus1=p1rdm2497.1.2 bus2=p1rlv1185.1.2 switch=n enabled=y phases=2 Linecode=1P_OH_AL_2/0_Rucina_0_416_0_2_2_2_2_2_2_2_2_2_2_2_2_2_2_2_2_2_2_2_2_2_2_2_2_2_2_2_2_2

New Line.l(r:p1rdm2497-p1rdt1122lv) Units=km Length=0.0199571 bus1=p1rdt1122lv.1.2 bus2=p1rdm2497.1.2 switch=n enabled=y phases=2 Linecode=1P_OH_AL_2/0_Rucina_0_416_0_2_2_2_2_2_2_2_2_2_2_2_2_2_2_2_2_2_2_2_2_2_2_2_2_2_2_2_2_2

New Line.l(r:p1rdm2498-p1rlv5626) Units=km Length=0.0172566 bus1=p1rdm2498.1.2 bus2=p1rlv5626.1.2 switch=n enabled=y phases=2 Linecode=1P_OH_AL_2/0_Rucina_0_416_0_2_2_2_2_2_2_2_2_2_2_2_2_2_2_2_2_2_2_2_2_2_2_2_2_2_2_2_2_2

New Line.l(r:p1rdm2498-p1rdt1122lv) Units=km Length=0.0199571 bus1=p1rdt1122lv.1.2 bus2=p1rdm2498.1.2 switch=n enabled=y phases=2 Linecode=1P_OH_AL_2/0_Rucina_0_416_0_2_2_2_2_2_2_2_2_2_2_2_2_2_2_2_2_2_2_2_2_2_2_2_2_2_2_2_2_2

New Line.l(r:p1rdt1222lv-p1rlv1301) Units=km Length=0.0280917 bus1=p1rdt1222lv.1.2 bus2=p1rlv1301.1.2 switch=n enabled=y phases=2 Linecode=1P_OH_AL_4/0_Zuzara_0_416_0_2_2_2_2_2_2_2_2_2_2_2_2_2_2_2_2_2_2_2_2_2_2_2_2_2_2_2_2_2

New Line.l(r:p1rdt1222lv-p1rlv1703) Units=km Length=0.0751477 bus1=p1rdt1222lv.1.2 bus2=p1rlv1703.1.2 switch=n enabled=y phases=2 Linecode=1P_OH_AL_4/0_Zuzara_0_416_0_2_2_2_2_2_2_2_2_2_2_2_2_2_2_2_2_2_2_2_2_2_2_2_2_2_2_2_2_2

New Line.l(r:p1rdt1222lv-p1rlv8242) Units=km Length=0.0283145 bus1=p1rdt1222lv.1.2 bus2=p1rlv8242.1.2 switch=n enabled=y phases=2 Linecode=1P_OH_AL_4/0_Zuzara_0_416_0_2_2_2_2_2_2_2_2_2_2_2_2_2_2_2_2_2_2_2_2_2_2_2_2_2_2_2_2_2

New Line.l(r:p1rdt1222lv-p1rlv10511) Units=km Length=0.03837940000000001 bus1=p1rdt1222lv.1.2 bus2=p1rlv10511.1.2 switch=n enabled=y phases=2 Linecode=1P_OH_AL_4/0_Zuzara_0_416_0_2_2_2_2_2_2_2_2_2_2_2_2_2_2_2_2_2_2_2_2_2_2_2_2_2_2_2_2_2

New Line.l(r:p1rdt1222lv-p1rlv12976) Units=km Length=0.0188765 bus1=p1rdt1222lv.1.2 bus2=p1rlv12976.1.2 switch=n enabled=y phases=2 Linecode=1P_OH_AL_2/0_Rucina_0_416_0_2_2_2_2_2_2_2_2_2_2_2_2_2_2_2_2_2_2_2_2_2_2_2_2_2_2_2_2_2

New Line.l(r:p1rdt1224lv-p1rlv1303) Units=km Length=0.00983512 bus1=p1rdt1224lv.1.2 bus2=p1rlv1303.1.2 switch=n enabled=y phases=2 Linecode=1P_OH_AL_2/0_Rucina_0_416_0_2_2_2_2_2_2_2_2_2_2_2_2_2_2_2_2_2_2_2_2_2_2_2_2_2_2_2_2_2

New Line.l(r:p1rdt1224lv-p1rlv4838) Units=km Length=0.038437 bus1=p1rdt1224lv.1.2 bus2=p1rlv4838.1.2 switch=n enabled=y phases=2 Linecode=1P_OH_AL_4/0_Zuzara_0_416_0_2_2_2_2_2_2_2_2_2_2_2_2_2_2_2_2_2_2_2_2_2_2_2_2_2_2_2_2_2

New Line.l(r:p1rdt1224lv-p1rlv8638) Units=km Length=0.0172115 bus1=p1rdt1224lv.1.2 bus2=p1rlv8638.1.2 switch=n enabled=y phases=2 Linecode=1P_OH_AL_2/0_Rucina_0_416_0_2_2_2_2_2_2_2_2_2_2_2_2_2_2_2_2_2_2_2_2_2_2_2_2_2_2_2_2_2

New Line.l(r:p1rdt1224lv-p1rlv9861) Units=km Length=0.0511993 bus1=p1rdt1224lv.1.2 bus2=p1rlv9861.1.2 switch=n enabled=y phases=2 Linecode=1P_OH_AL_4/0_Zuzara_0_416_0_2_2_2_2_2_2_2_2_2_2_2_2_2_2_2_2_2_2_2_2_2_2_2_2_2_2_2_2_2

New Line.l(r:p1rdm2716-p1rlv8364) Units=km Length=0.0795648 bus1=p1rdm2716.1.2 bus2=p1rlv8364.1.2 switch=n enabled=y phases=2 Linecode=1P_OH_AL_4/0_Zuzara_0_416_0_2_2_2_2_2_2_2_2_2_2_2_2_2_2_2_2_2_2_2_2_2_2_2_2_2_2_2_2_2

New Line.l(r:p1rdm2716-p1rdt1224lv) Units=km Length=0.18258500000000003 bus1=p1rdt1224lv.1.2 bus2=p1rdm2716.1.2 switch=n enabled=y phases=2 Linecode=1P_OH_AL_4/0_Zuzara_0_416_0_2_2_2_2_2_2_2_2_2_2_2_2_2_2_2_2_2_2_2_2_2_2_2_2_2_2_2_2_2

New Line.l(r:p1rdt1225lv-p1rlv1304) Units=km Length=0.00205767 bus1=p1rdt1225lv.1.2 bus2=p1rlv1304.1.2 switch=n enabled=y phases=2 Linecode=1P_OH_AL_4_Periwinkle_0_416_0_2_2_2_2_2_2_2_2_2_2_2_2_2_2_2_2_2_2_2_2_2_2_2_2_2_2_2_2_2

New Line.l(r:p1rdt1225lv-p1rlv5219) Units=km Length=0.00205767 bus1=p1rdt1225lv.1.2 bus2=p1rlv5219.1.2 switch=n enabled=y phases=2 Linecode=1P_OH_AL_4_Periwinkle_0_416_0_2_2_2_2_2_2_2_2_2_2_2_2_2_2_2_2_2_2_2_2_2_2_2_2_2_2_2_2_2

New Line.l(r:p1rdt1226lv-p1rlv1305) Units=km Length=0.0214142 bus1=p1rdt1226lv.1.2 bus2=p1rlv1305.1.2 switch=n enabled=y phases=2 Linecode=1P_OH_AL_2/0_Rucina_0_416_0_2_2_2_2_2_2_2_2_2_2_2_2_2_2_2_2_2_2_2_2_2_2_2_2_2_2_2_2_2

New Line.l(r:p1rdt1226lv-p1rlv7038) Units=km Length=0.0178651 bus1=p1rdt1226lv.1.2 bus2=p1rlv7038.1.2 switch=n enabled=y phases=2 Linecode=1P_OH_AL_2/0_Rucina_0_416_0_2_2_2_2_2_2_2_2_2_2_2_2_2_2_2_2_2_2_2_2_2_2_2_2_2_2_2_2_2

New Line.l(r:p1rdt1226lv-p1rlv9047) Units=km Length=0.0235981 bus1=p1rdt1226lv.1.2 bus2=p1rlv9047.1.2 switch=n enabled=y phases=2 Linecode=1P_OH_AL_2/0_Rucina_0_416_0_2_2_2_2_2_2_2_2_2_2_2_2_2_2_2_2_2_2_2_2_2_2_2_2_2_2_2_2_2

New Line.l(r:p1rdt1227lv-p1rlv1306) Units=km Length=0.0654642 bus1=p1rdt1227lv.1.2 bus2=p1rlv1306.1.2 switch=n enabled=y phases=2 Linecode=1P_OH_AL_4/0_Zuzara_0_416_0_2_2_2_2_2_2_2_2_2_2_2_2_2_2_2_2_2_2_2_2_2_2_2_2_2_2_2_2_2

New Line.l(r:p1rdt1227lv-p1rlv6507) Units=km Length=0.0755644 bus1=p1rdt1227lv.1.2 bus2=p1rlv6507.1.2 switch=n enabled=y phases=2 Linecode=1P_OH_AL_4/0_Zuzara_0_416_0_2_2_2_2_2_2_2_2_2_2_2_2_2_2_2_2_2_2_2_2_2_2_2_2_2_2_2_2_2

New Line.l(r:p1rdt1230lv-p1rlv1309) Units=km Length=0.001 bus1=p1rdt1230lv.1.2 bus2=p1rlv1309.1.2 switch=n enabled=y phases=2 Linecode=1P_OH_AL_4_Periwinkle_0_416_0_2_2_2_2_2_2_2_2_2_2_2_2_2_2_2_2_2_2_2_2_2_2_2_2_2_2_2_2_2

New Line.l(r:p1rdt1363lv-p1rlv1461) Units=km Length=0.001 bus1=p1rdt1363lv.1.2 bus2=p1rlv1461.1.2 switch=n enabled=y phases=2 Linecode=1P_OH_AL_4_Periwinkle_0_416_0_2_2_2_2_2_2_2_2_2_2_2_2_2_2_2_2_2_2_2_2_2_2_2_2_2_2_2_2_2

New Line.l(r:p1rdt1364lv-p1rlv1462) Units=km Length=0.0510444 bus1=p1rdt1364lv.1.2 bus2=p1rlv1462.1.2 switch=n enabled=y phases=2 Linecode=1P_OH_AL_4/0_Zuzara_0_416_0_2_2_2_2_2_2_2_2_2_2_2_2_2_2_2_2_2_2_2_2_2_2_2_2_2_2_2_2_2

New Line.l(r:p1rdt1364lv-p1rlv5491) Units=km Length=0.07696 bus1=p1rdt1364lv.1.2 bus2=p1rlv5491.1.2 switch=n enabled=y phases=2 Linecode=1P_OH_AL_4/0_Zuzara_0_416_0_2_2_2_2_2_2_2_2_2_2_2_2_2_2_2_2_2_2_2_2_2_2_2_2_2_2_2_2_2

New Line.l(r:p1rdm3008-p1rlv1463) Units=km Length=0.0114699 bus1=p1rdm3008.1.2 bus2=p1rlv1463.1.2 switch=n enabled=y phases=2 Linecode=1P_OH_AL_2/0_Rucina_0_416_0_2_2_2_2_2_2_2_2_2_2_2_2_2_2_2_2_2_2_2_2_2_2_2_2_2_2_2_2_2

New Line.l(r:p1rdm3008-p1rdt1365lv) Units=km Length=0.0165775 bus1=p1rdt1365lv.1.2 bus2=p1rdm3008.1.2 switch=n enabled=y phases=2 Linecode=1P_OH_AL_2/0_Rucina_0_416_0_2_2_2_2_2_2_2_2_2_2_2_2_2_2_2_2_2_2_2_2_2_2_2_2_2_2_2_2_2

New Line.l(r:p1rdm3009-p1rlv9567) Units=km Length=0.0177626 bus1=p1rdm3009.1.2 bus2=p1rlv9567.1.2 switch=n enabled=y phases=2 Linecode=1P_OH_AL_2/0_Rucina_0_416_0_2_2_2_2_2_2_2_2_2_2_2_2_2_2_2_2_2_2_2_2_2_2_2_2_2_2_2_2_2

New Line.l(r:p1rdm3009-p1rdt1365lv) Units=km Length=0.016553 bus1=p1rdt1365lv.1.2 bus2=p1rdm3009.1.2 switch=n enabled=y phases=2 Linecode=1P_OH_AL_2/0_Rucina_0_416_0_2_2_2_2_2_2_2_2_2_2_2_2_2_2_2_2_2_2_2_2_2_2_2_2_2_2_2_2_2

New Line.l(r:p1rdt1366lv-p1rlv1464) Units=km Length=0.0266099 bus1=p1rdt1366lv.1.2 bus2=p1rlv1464.1.2 switch=n enabled=y phases=2 Linecode=1P_OH_AL_2/0_Rucina_0_416_0_2_2_2_2_2_2_2_2_2_2_2_2_2_2_2_2_2_2_2_2_2_2_2_2_2_2_2_2_2

New Line.l(r:p1rdt1366lv-p1rlv5094) Units=km Length=0.06951490000000002 bus1=p1rdt1366lv.1.2 bus2=p1rlv5094.1.2 switch=n enabled=y phases=2 Linecode=1P_OH_AL_4/0_Zuzara_0_416_0_2_2_2_2_2_2_2_2_2_2_2_2_2_2_2_2_2_2_2_2_2_2_2_2_2_2_2_2_2

New Line.l(r:p1rdt1366lv-p1rlv10117) Units=km Length=0.0398178 bus1=p1rdt1366lv.1.2 bus2=p1rlv10117.1.2 switch=n enabled=y phases=2 Linecode=1P_OH_AL_4/0_Zuzara_0_416_0_2_2_2_2_2_2_2_2_2_2_2_2_2_2_2_2_2_2_2_2_2_2_2_2_2_2_2_2_2

New Line.l(r:p1rdt1366lv-p1rlv11632) Units=km Length=0.0103085 bus1=p1rdt1366lv.1.2 bus2=p1rlv11632.1.2 switch=n enabled=y phases=2 Linecode=1P_OH_AL_2/0_Rucina_0_416_0_2_2_2_2_2_2_2_2_2_2_2_2_2_2_2_2_2_2_2_2_2_2_2_2_2_2_2_2_2

New Line.l(r:p1rdt1366lv-p1rlv13356) Units=km Length=0.023068 bus1=p1rdt1366lv.1.2 bus2=p1rlv13356.1.2 switch=n enabled=y phases=2 Linecode=1P_OH_AL_2/0_Rucina_0_416_0_2_2_2_2_2_2_2_2_2_2_2_2_2_2_2_2_2_2_2_2_2_2_2_2_2_2_2_2_2

New Line.l(r:p1rdt1368lv-p1rlv1466) Units=km Length=0.0368688 bus1=p1rdt1368lv.1.2 bus2=p1rlv1466.1.2 switch=n enabled=y phases=2 Linecode=1P_OH_AL_4/0_Zuzara_0_416_0_2_2_2_2_2_2_2_2_2_2_2_2_2_2_2_2_2_2_2_2_2_2_2_2_2_2_2_2_2

New Line.l(r:p1rdt1369lv-p1rlv1468) Units=km Length=0.001 bus1=p1rdt1369lv.1.2 bus2=p1rlv1468.1.2 switch=n enabled=y phases=2 Linecode=1P_OH_AL_4_Periwinkle_0_416_0_2_2_2_2_2_2_2_2_2_2_2_2_2_2_2_2_2_2_2_2_2_2_2_2_2_2_2_2_2

New Line.l(r:p1rdt1370lv-p1rlv1469) Units=km Length=0.0403019 bus1=p1rdt1370lv.1.2 bus2=p1rlv1469.1.2 switch=n enabled=y phases=2 Linecode=1P_OH_AL_4/0_Zuzara_0_416_0_2_2_2_2_2_2_2_2_2_2_2_2_2_2_2_2_2_2_2_2_2_2_2_2_2_2_2_2_2

New Line.l(r:p1rdt1373lv-p1rlv7873) Units=km Length=0.0196873 bus1=p1rdt1373lv.1.2 bus2=p1rlv7873.1.2 switch=n enabled=y phases=2 Linecode=1P_OH_AL_2/0_Rucina_0_416_0_2_2_2_2_2_2_2_2_2_2_2_2_2_2_2_2_2_2_2_2_2_2_2_2_2_2_2_2_2

New Line.l(r:p1rdm3023-p1rlv1472) Units=km Length=0.020428700000000004 bus1=p1rdm3023.1.2 bus2=p1rlv1472.1.2 switch=n enabled=y phases=2 Linecode=1P_OH_AL_2/0_Rucina_0_416_0_2_2_2_2_2_2_2_2_2_2_2_2_2_2_2_2_2_2_2_2_2_2_2_2_2_2_2_2_2

New Line.l(r:p1rdm3023-p1rdt1373lv) Units=km Length=0.0199482 bus1=p1rdt1373lv.1.2 bus2=p1rdm3023.1.2 switch=n enabled=y phases=2 Linecode=1P_OH_AL_2/0_Rucina_0_416_0_2_2_2_2_2_2_2_2_2_2_2_2_2_2_2_2_2_2_2_2_2_2_2_2_2_2_2_2_2

New Line.l(r:p1rdt1474lv-p1rlv1589) Units=km Length=0.0677245 bus1=p1rdt1474lv.1.2 bus2=p1rlv1589.1.2 switch=n enabled=y phases=2 Linecode=1P_OH_AL_4/0_Zuzara_0_416_0_2_2_2_2_2_2_2_2_2_2_2_2_2_2_2_2_2_2_2_2_2_2_2_2_2_2_2_2_2

New Line.l(r:p1rdt1474lv-p1rlv3732) Units=km Length=0.0677245 bus1=p1rdt1474lv.1.2 bus2=p1rlv3732.1.2 switch=n enabled=y phases=2 Linecode=1P_OH_AL_4/0_Zuzara_0_416_0_2_2_2_2_2_2_2_2_2_2_2_2_2_2_2_2_2_2_2_2_2_2_2_2_2_2_2_2_2

New Line.l(r:p1rdt1475lv-p1rlv1590) Units=km Length=0.0625066 bus1=p1rdt1475lv.1.2 bus2=p1rlv1590.1.2 switch=n enabled=y phases=2 Linecode=1P_OH_AL_4/0_Zuzara_0_416_0_2_2_2_2_2_2_2_2_2_2_2_2_2_2_2_2_2_2_2_2_2_2_2_2_2_2_2_2_2

New Line.l(r:p1rdm3247-p1rlv5495) Units=km Length=0.0452459 bus1=p1rdm3247.1.2 bus2=p1rlv5495.1.2 switch=n enabled=y phases=2 Linecode=1P_OH_AL_4/0_Zuzara_0_416_0_2_2_2_2_2_2_2_2_2_2_2_2_2_2_2_2_2_2_2_2_2_2_2_2_2_2_2_2_2
