New Load.load_p4ulv274 conn=wye bus1=p4ulv274.1.2 kV=0.2080002494301389 Vminpu=0.8 Vmaxpu=1.2 model=1 kW=8.620090000000001 kvar=1.750383929944574 Phases=2

New Load.load_p4ulv394 conn=wye bus1=p4ulv394.1.2.3 kV=0.48 Vminpu=0.8 Vmaxpu=1.2 model=1 kW=24.5002 kvar=4.974977797265232 Phases=3

New Load.load_p4ulv694 conn=wye bus1=p4ulv694.1.2 kV=0.2080002494301389 Vminpu=0.8 Vmaxpu=1.2 model=1 kW=7.60008 kvar=1.5392808793047372 Phases=2

New Load.load_p4ulv695 conn=wye bus1=p4ulv695.1.2 kV=0.2080002494301389 Vminpu=0.8 Vmaxpu=1.2 model=1 kW=8.950090000000001 kvar=1.8220710226461887 Phases=2

New Load.load_p4ulv700 conn=wye bus1=p4ulv700.1.2 kV=0.2080002494301389 Vminpu=0.8 Vmaxpu=1.2 model=1 kW=11.0201 kvar=2.2377267460527905 Phases=2

New Load.load_p4ulv1110 conn=wye bus1=p4ulv1110.1.2 kV=0.2080002494301389 Vminpu=0.8 Vmaxpu=1.2 model=1 kW=8.52009 kvar=1.7300780638811737 Phases=2

New Load.load_p4ulv1112 conn=wye bus1=p4ulv1112.1.2 kV=0.2080002494301389 Vminpu=0.8 Vmaxpu=1.2 model=1 kW=8.69009 kvar=1.7691398827483764 Phases=2

New Load.load_p4ulv1231 conn=wye bus1=p4ulv1231.1.2 kV=0.2080002494301389 Vminpu=0.8 Vmaxpu=1.2 model=1 kW=10.8001 kvar=2.187396372745957 Phases=2

New Load.load_p4ulv1540 conn=wye bus1=p4ulv1540.1.2 kV=0.2080002494301389 Vminpu=0.8 Vmaxpu=1.2 model=1 kW=7.31007 kvar=1.4805437544577398 Phases=2

New Load.load_p4ulv1541 conn=wye bus1=p4ulv1541.1.2 kV=0.2080002494301389 Vminpu=0.8 Vmaxpu=1.2 model=1 kW=7.30007 kvar=1.4785184061991627 Phases=2

New Load.load_p4ulv2345 conn=wye bus1=p4ulv2345.1.2 kV=0.2080002494301389 Vminpu=0.8 Vmaxpu=1.2 model=1 kW=6.65007 kvar=1.3503543073223732 Phases=2

New Load.load_p4ulv2784 conn=wye bus1=p4ulv2784.1.2 kV=0.2080002494301389 Vminpu=0.8 Vmaxpu=1.2 model=1 kW=7.51008 kvar=1.5210527449775426 Phases=2

New Load.load_p4ulv3196 conn=wye bus1=p4ulv3196.1.2 kV=0.2080002494301389 Vminpu=0.8 Vmaxpu=1.2 model=1 kW=6.75007 kvar=1.3706601733857733 Phases=2

New Load.load_p4ulv3198 conn=wye bus1=p4ulv3198.1.2 kV=0.2080002494301389 Vminpu=0.8 Vmaxpu=1.2 model=1 kW=2.81003 kvar=0.570600928141371 Phases=2

New Load.load_p4ulv3291 conn=wye bus1=p4ulv3291.1.2 kV=0.2080002494301389 Vminpu=0.8 Vmaxpu=1.2 model=1 kW=7.56008 kvar=1.5311794862704282 Phases=2

New Load.load_p4ulv3633 conn=wye bus1=p4ulv3633.1.2 kV=0.2080002494301389 Vminpu=0.8 Vmaxpu=1.2 model=1 kW=9.5701 kvar=1.9382785369409616 Phases=2

New Load.load_p4ulv3634 conn=wye bus1=p4ulv3634.1.2 kV=0.2080002494301389 Vminpu=0.8 Vmaxpu=1.2 model=1 kW=6.020060000000001 kvar=1.219271803753023 Phases=2

New Load.load_p4ulv3635 conn=wye bus1=p4ulv3635.1.2 kV=0.2080002494301389 Vminpu=0.8 Vmaxpu=1.2 model=1 kW=7.85008 kvar=1.5899145857691672 Phases=2

New Load.load_p4ulv3637 conn=wye bus1=p4ulv3637.1.2 kV=0.2080002494301389 Vminpu=0.8 Vmaxpu=1.2 model=1 kW=6.75007 kvar=1.3706601733857733 Phases=2

New Load.load_p4ulv4063 conn=wye bus1=p4ulv4063.1.2 kV=0.2080002494301389 Vminpu=0.8 Vmaxpu=1.2 model=1 kW=9.760100000000001 kvar=1.9818728336539455 Phases=2

New Load.load_p4ulv4166 conn=wye bus1=p4ulv4166.1.2 kV=0.2080002494301389 Vminpu=0.8 Vmaxpu=1.2 model=1 kW=12.170100000000001 kvar=2.471244205781896 Phases=2

New Load.load_p4ulv4555 conn=wye bus1=p4ulv4555.1.2 kV=0.2080002494301389 Vminpu=0.8 Vmaxpu=1.2 model=1 kW=7.47007 kvar=1.520766616217112 Phases=2

New Load.load_p4ulv4837 conn=wye bus1=p4ulv4837.1.2 kV=0.2080002494301389 Vminpu=0.8 Vmaxpu=1.2 model=1 kW=5.57006 kvar=1.131048923251042 Phases=2

New Load.load_p4ulv5724 conn=wye bus1=p4ulv5724.1.2 kV=0.2080002494301389 Vminpu=0.8 Vmaxpu=1.2 model=1 kW=6.47006 kvar=1.3104124753889972 Phases=2

New Load.load_p4ulv5725 conn=wye bus1=p4ulv5725.1.2 kV=0.2080002494301389 Vminpu=0.8 Vmaxpu=1.2 model=1 kW=9.32009 kvar=1.8876428051282732 Phases=2

New Load.load_p4ulv6139 conn=wye bus1=p4ulv6139.1.2 kV=0.2080002494301389 Vminpu=0.8 Vmaxpu=1.2 model=1 kW=5.70006 kvar=1.1604256664843182 Phases=2

New Load.load_p4ulv6140 conn=wye bus1=p4ulv6140.1.2 kV=0.2080002494301389 Vminpu=0.8 Vmaxpu=1.2 model=1 kW=6.75007 kvar=1.3706601733857733 Phases=2

New Load.load_p4ulv6549 conn=wye bus1=p4ulv6549.1.2 kV=0.2080002494301389 Vminpu=0.8 Vmaxpu=1.2 model=1 kW=8.45008 kvar=1.7202783331834768 Phases=2

New Load.load_p4ulv6550 conn=wye bus1=p4ulv6550.1.2 kV=0.2080002494301389 Vminpu=0.8 Vmaxpu=1.2 model=1 kW=8.01008 kvar=1.6307025579717946 Phases=2

New Load.load_p4ulv6555 conn=wye bus1=p4ulv6555.1.2 kV=0.2080002494301389 Vminpu=0.8 Vmaxpu=1.2 model=1 kW=13.1601 kvar=2.6722722798095604 Phases=2

New Load.load_p4ulv7060 conn=wye bus1=p4ulv7060.1.2 kV=0.2080002494301389 Vminpu=0.8 Vmaxpu=1.2 model=1 kW=17.430200000000003 kvar=3.5393530665828217 Phases=2

New Load.load_p4ulv7061 conn=wye bus1=p4ulv7061.1.2 kV=0.2080002494301389 Vminpu=0.8 Vmaxpu=1.2 model=1 kW=16.0702 kvar=3.2631932881205756 Phases=2

New Load.load_p4ulv7062 conn=wye bus1=p4ulv7062.1.2.3 kV=0.48 Vminpu=0.8 Vmaxpu=1.2 model=1 kW=25.360299999999995 kvar=5.149628551276539 Phases=3

New Load.load_p4ulv8673 conn=wye bus1=p4ulv8673.1.2 kV=0.2080002494301389 Vminpu=0.8 Vmaxpu=1.2 model=1 kW=7.82008 kvar=1.5920221095849323 Phases=2

New Load.load_p4ulv8675 conn=wye bus1=p4ulv8675.1.2 kV=0.2080002494301389 Vminpu=0.8 Vmaxpu=1.2 model=1 kW=13.5301 kvar=2.747403984244141 Phases=2

New Load.load_p4ulv9076 conn=wye bus1=p4ulv9076.1.2 kV=0.2080002494301389 Vminpu=0.8 Vmaxpu=1.2 model=1 kW=17.520200000000003 kvar=3.5576283460398823 Phases=2

New Load.load_p4ulv9078 conn=wye bus1=p4ulv9078.1.2.3 kV=0.48 Vminpu=0.8 Vmaxpu=1.2 model=1 kW=21.3502 kvar=4.335343016268118 Phases=3

New Load.load_p4ulv9505 conn=wye bus1=p4ulv9505.1.2 kV=0.2080002494301389 Vminpu=0.8 Vmaxpu=1.2 model=1 kW=10.3201 kvar=2.1009794494592713 Phases=2

New Load.load_p4ulv9507 conn=wye bus1=p4ulv9507.1.2 kV=0.2080002494301389 Vminpu=0.8 Vmaxpu=1.2 model=1 kW=0.850009 kvar=0.279987247081644 Phases=2

New Load.load_p4ulv9508 conn=wye bus1=p4ulv9508.1.2 kV=0.2080002494301389 Vminpu=0.8 Vmaxpu=1.2 model=1 kW=8.66009 kvar=1.7585062763699344 Phases=2

New Load.load_p4ulv9927 conn=wye bus1=p4ulv9927.1.2 kV=0.2080002494301389 Vminpu=0.8 Vmaxpu=1.2 model=1 kW=10.8101 kvar=2.2007342900359173 Phases=2

New Load.load_p4ulv9928 conn=wye bus1=p4ulv9928.1.2 kV=0.2080002494301389 Vminpu=0.8 Vmaxpu=1.2 model=1 kW=8.99009 kvar=1.8302142749381596 Phases=2

New Load.load_p4ulv10047 conn=wye bus1=p4ulv10047.1.2 kV=0.2080002494301389 Vminpu=0.8 Vmaxpu=1.2 model=1 kW=16.3702 kvar=3.3241108863107773 Phases=2

New Load.load_p4ulv10351 conn=wye bus1=p4ulv10351.1.2 kV=0.2080002494301389 Vminpu=0.8 Vmaxpu=1.2 model=1 kW=6.26006 kvar=1.2711593990885048 Phases=2

New Load.load_p4ulv10767 conn=wye bus1=p4ulv10767.1.2 kV=0.2080002494301389 Vminpu=0.8 Vmaxpu=1.2 model=1 kW=5.73006 kvar=1.1605367042542845 Phases=2

New Load.load_p4ulv10769 conn=wye bus1=p4ulv10769.1.2 kV=0.2080002494301389 Vminpu=0.8 Vmaxpu=1.2 model=1 kW=6.66007 kvar=1.348896117650222 Phases=2

New Load.load_p4ulv10874 conn=wye bus1=p4ulv10874.1.2 kV=0.2080002494301389 Vminpu=0.8 Vmaxpu=1.2 model=1 kW=8.50009 kvar=1.7304594343615136 Phases=2

New Load.load_p4ulv11217 conn=wye bus1=p4ulv11217.1.2 kV=0.2080002494301389 Vminpu=0.8 Vmaxpu=1.2 model=1 kW=6.29006 kvar=1.280538637790892 Phases=2

New Load.load_p4ulv11218 conn=wye bus1=p4ulv11217.1.2 kV=0.2080002494301389 Vminpu=0.8 Vmaxpu=1.2 model=1 kW=6.77007 kvar=1.378259701107618 Phases=2

New Load.load_p4ulv11320 conn=wye bus1=p4ulv11320.1.2 kV=0.2080002494301389 Vminpu=0.8 Vmaxpu=1.2 model=1 kW=2.15002 kvar=0.43994369930755917 Phases=2

New Load.load_p4ulv12084 conn=wye bus1=p4ulv12084.1.2 kV=0.2080002494301389 Vminpu=0.8 Vmaxpu=1.2 model=1 kW=11.9501 kvar=2.4328169803570936 Phases=2

New Load.load_p4ulv12517 conn=wye bus1=p4ulv12517.1.2 kV=0.2080002494301389 Vminpu=0.8 Vmaxpu=1.2 model=1 kW=9.35009 kvar=1.8986167522073973 Phases=2

New Load.load_p4ulv13083 conn=wye bus1=p4ulv13083.1.2 kV=0.2080002494301389 Vminpu=0.8 Vmaxpu=1.2 model=1 kW=16.4702 kvar=3.3357890888418114 Phases=2

New Load.load_p4ulv13390 conn=wye bus1=p4ulv13390.1.2 kV=0.2080002494301389 Vminpu=0.8 Vmaxpu=1.2 model=1 kW=7.94008 kvar=1.608142720096362 Phases=2

New Load.load_p4ulv13391 conn=wye bus1=p4ulv13391.1.2 kV=0.2080002494301389 Vminpu=0.8 Vmaxpu=1.2 model=1 kW=8.480080000000001 kvar=1.7219536868692071 Phases=2

New Load.load_p4ulv13392 conn=wye bus1=p4ulv13392.1.2 kV=0.2080002494301389 Vminpu=0.8 Vmaxpu=1.2 model=1 kW=8.06008 kvar=1.6408816233367585 Phases=2

New Load.load_p4ulv13841 conn=wye bus1=p4ulv13841.1.2 kV=0.2080002494301389 Vminpu=0.8 Vmaxpu=1.2 model=1 kW=7.85008 kvar=1.5899145857691672 Phases=2

New Load.load_p4ulv14284 conn=wye bus1=p4ulv14284.1.2 kV=0.2080002494301389 Vminpu=0.8 Vmaxpu=1.2 model=1 kW=8.400080000000003 kvar=1.7100992678185132 Phases=2

New Load.load_p4ulv14704 conn=wye bus1=p4ulv14704.1.2 kV=0.2080002494301389 Vminpu=0.8 Vmaxpu=1.2 model=1 kW=10.510100000000001 kvar=2.1286612732472183 Phases=2

New Load.load_p4ulv14796 conn=wye bus1=p4ulv14796.1.2 kV=0.2080002494301389 Vminpu=0.8 Vmaxpu=1.2 model=1 kW=15.900200000000002 kvar=3.2286733158127956 Phases=2

New Load.load_p4ulv15144 conn=wye bus1=p4ulv15144.1.2 kV=0.2080002494301389 Vminpu=0.8 Vmaxpu=1.2 model=1 kW=7.01007 kvar=1.419783306700424 Phases=2

New Load.load_p4ulv15566 conn=wye bus1=p4ulv15566.1.2 kV=0.2080002494301389 Vminpu=0.8 Vmaxpu=1.2 model=1 kW=6.29006 kvar=1.280538637790892 Phases=2

New Load.load_p4ulv15992 conn=wye bus1=p4ulv15992.1.2 kV=0.2080002494301389 Vminpu=0.8 Vmaxpu=1.2 model=1 kW=7.35007 kvar=1.4886451474920486 Phases=2

New Load.load_p4ulv15993 conn=wye bus1=p4ulv15993.1.2 kV=0.2080002494301389 Vminpu=0.8 Vmaxpu=1.2 model=1 kW=7.99008 kvar=1.6182694613892477 Phases=2

New Load.load_p4ulv16108 conn=wye bus1=p4ulv16108.1.2 kV=0.2080002494301389 Vminpu=0.8 Vmaxpu=1.2 model=1 kW=7.21007 kvar=1.47159529527446 Phases=2

New Load.load_p4ulv16443 conn=wye bus1=p4ulv16443.1.2 kV=0.2080002494301389 Vminpu=0.8 Vmaxpu=1.2 model=1 kW=6.26006 kvar=1.2711593990885048 Phases=2

New Load.load_p4ulv16445 conn=wye bus1=p4ulv16445.1.2 kV=0.2080002494301389 Vminpu=0.8 Vmaxpu=1.2 model=1 kW=8.85009 kvar=1.8017128919162608 Phases=2

New Load.load_p4ulv16881 conn=wye bus1=p4ulv16881.1.2 kV=0.2080002494301389 Vminpu=0.8 Vmaxpu=1.2 model=1 kW=5.40005 kvar=1.0993492384814623 Phases=2

New Load.load_p4ulv16882 conn=wye bus1=p4ulv16882.1.2 kV=0.2080002494301389 Vminpu=0.8 Vmaxpu=1.2 model=1 kW=12.090100000000001 kvar=2.448666298102415 Phases=2

New Load.load_p4ulv17328 conn=wye bus1=p4ulv17328.1.2 kV=0.2080002494301389 Vminpu=0.8 Vmaxpu=1.2 model=1 kW=11.680100000000001 kvar=2.3717454620712335 Phases=2

New Load.load_p4ulv17329 conn=wye bus1=p4ulv17329.1.2 kV=0.2080002494301389 Vminpu=0.8 Vmaxpu=1.2 model=1 kW=1.02001 kvar=0.3399434706953838 Phases=2

New Load.load_p4ulv18179 conn=wye bus1=p4ulv18179.1.2 kV=0.2080002494301389 Vminpu=0.8 Vmaxpu=1.2 model=1 kW=7.42007 kvar=1.510587550852148 Phases=2

New Load.load_p4ulv18181 conn=wye bus1=p4ulv18181.1.2 kV=0.2080002494301389 Vminpu=0.8 Vmaxpu=1.2 model=1 kW=8.20008 kvar=1.6608017748193689 Phases=2

New Load.load_p4ulv18604 conn=wye bus1=p4ulv18604.1.2 kV=0.2080002494301389 Vminpu=0.8 Vmaxpu=1.2 model=1 kW=6.65007 kvar=1.3503543073223732 Phases=2

New Load.load_p4ulv18606 conn=wye bus1=p4ulv18606.1.2 kV=0.2080002494301389 Vminpu=0.8 Vmaxpu=1.2 model=1 kW=10.1701 kvar=2.0704422533643796 Phases=2

New Load.load_p4ulv19009 conn=wye bus1=p4ulv19009.1.2 kV=0.2080002494301389 Vminpu=0.8 Vmaxpu=1.2 model=1 kW=9.43009 kvar=1.9197900501498415 Phases=2

New Load.load_p4ulv19010 conn=wye bus1=p4ulv19010.1.2 kV=0.2080002494301389 Vminpu=0.8 Vmaxpu=1.2 model=1 kW=8.73009 kvar=1.7681472578722188 Phases=2

New Load.load_p4ulv19013 conn=wye bus1=p4ulv19013.1.2 kV=0.2080002494301389 Vminpu=0.8 Vmaxpu=1.2 model=1 kW=10.2501 kvar=2.081371577364607 Phases=2

New Load.load_p4ulv19117 conn=wye bus1=p4ulv19117.1.2 kV=0.2080002494301389 Vminpu=0.8 Vmaxpu=1.2 model=1 kW=11.9801 kvar=2.432663060261435 Phases=2

New Load.load_p4ulv19857 conn=wye bus1=p4ulv19857.1.2 kV=0.2080002494301389 Vminpu=0.8 Vmaxpu=1.2 model=1 kW=8.22008 kvar=1.6691584351043662 Phases=2

New Load.load_p4ulv20298 conn=wye bus1=p4ulv20298.1.2 kV=0.2080002494301389 Vminpu=0.8 Vmaxpu=1.2 model=1 kW=7.42007 kvar=1.510587550852148 Phases=2

New Load.load_p4ulv20767 conn=wye bus1=p4ulv20767.1.2 kV=0.2080002494301389 Vminpu=0.8 Vmaxpu=1.2 model=1 kW=7.25007 kvar=1.4683916649062767 Phases=2

New Load.load_p4ulv20769 conn=wye bus1=p4ulv20769.1.2.3 kV=0.48 Vminpu=0.8 Vmaxpu=1.2 model=1 kW=22.4402 kvar=4.5566769563591825 Phases=3

New Load.load_p4ulv20770 conn=wye bus1=p4ulv20770.1.2 kV=0.2080002494301389 Vminpu=0.8 Vmaxpu=1.2 model=1 kW=10.7201 kvar=2.182411972378982 Phases=2

New Load.load_p4ulv21590 conn=wye bus1=p4ulv21590.1.2 kV=0.2080002494301389 Vminpu=0.8 Vmaxpu=1.2 model=1 kW=7.7100800000000005 kvar=1.5615597101490861 Phases=2

New Load.load_p4ulv22034 conn=wye bus1=p4ulv22034.1.2 kV=0.2080002494301389 Vminpu=0.8 Vmaxpu=1.2 model=1 kW=7.48007 kvar=1.5188929956485966 Phases=2

New Load.load_p4ulv22154 conn=wye bus1=p4ulv22154.1.2.3 kV=0.48 Vminpu=0.8 Vmaxpu=1.2 model=1 kW=28.0703 kvar=5.699917521594691 Phases=3

New Load.load_p4ulv22456 conn=wye bus1=p4ulv22456.1.2 kV=0.2080002494301389 Vminpu=0.8 Vmaxpu=1.2 model=1 kW=8.52009 kvar=1.7300780638811737 Phases=2

New Load.load_p4ulv22460 conn=wye bus1=p4ulv22460.1.2 kV=0.2080002494301389 Vminpu=0.8 Vmaxpu=1.2 model=1 kW=7.280070000000001 kvar=1.4782812635217957 Phases=2

New Load.load_p4ulv22560 conn=wye bus1=p4ulv22560.1.2 kV=0.2080002494301389 Vminpu=0.8 Vmaxpu=1.2 model=1 kW=8.44008 kvar=1.7094101330252216 Phases=2

New Load.load_p4ulv22859 conn=wye bus1=p4ulv22859.1.2 kV=0.2080002494301389 Vminpu=0.8 Vmaxpu=1.2 model=1 kW=10.3801 kvar=2.1077692032470283 Phases=2

New Load.load_p4ulv22860 conn=wye bus1=p4ulv22860.1.2 kV=0.2080002494301389 Vminpu=0.8 Vmaxpu=1.2 model=1 kW=6.52007 kvar=1.3205412420301414 Phases=2

New Load.load_p4ulv22969 conn=wye bus1=p4ulv22969.1.2.3 kV=0.48 Vminpu=0.8 Vmaxpu=1.2 model=1 kW=20.610200000000003 kvar=4.185079607398955 Phases=3

New Load.load_p4ulv23276 conn=wye bus1=p4ulv23276.1.2 kV=0.2080002494301389 Vminpu=0.8 Vmaxpu=1.2 model=1 kW=6.46006 kvar=1.30838712713042 Phases=2

New Load.load_p4ulv23277 conn=wye bus1=p4ulv23277.1.2 kV=0.2080002494301389 Vminpu=0.8 Vmaxpu=1.2 model=1 kW=6.15006 kvar=1.2488229464187643 Phases=2

New Load.load_p4ulv23278 conn=wye bus1=p4ulv23278.1.2 kV=0.2080002494301389 Vminpu=0.8 Vmaxpu=1.2 model=1 kW=8.10008 kvar=1.640548292233597 Phases=2

New Load.load_p4ulv24491 conn=wye bus1=p4ulv24491.1.2 kV=0.2080002494301389 Vminpu=0.8 Vmaxpu=1.2 model=1 kW=5.93006 kvar=1.2010436694258284 Phases=2

New Load.load_p4ulv25272 conn=wye bus1=p4ulv25272.1.2.3 kV=0.48 Vminpu=0.8 Vmaxpu=1.2 model=1 kW=151.662 kvar=30.79628258907436 Phases=3

New Load.load_p4ulv25273 conn=wye bus1=p4ulv25273.1.2.3 kV=0.48 Vminpu=0.8 Vmaxpu=1.2 model=1 kW=21.910199999999996 kvar=4.449055866223159 Phases=3

New Load.load_p4ulv25401 conn=wye bus1=p4ulv25401.1.2 kV=0.2080002494301389 Vminpu=0.8 Vmaxpu=1.2 model=1 kW=8.53009 kvar=1.7321086504875136 Phases=2

New Load.load_p4ulv25735 conn=wye bus1=p4ulv25735.1.2 kV=0.2080002494301389 Vminpu=0.8 Vmaxpu=1.2 model=1 kW=7.47007 kvar=1.520766616217112 Phases=2

New Load.load_p4ulv26161 conn=wye bus1=p4ulv26161.1.2 kV=0.2080002494301389 Vminpu=0.8 Vmaxpu=1.2 model=1 kW=8.36008 kvar=1.7019560155265416 Phases=2

New Load.load_p4ulv26162 conn=wye bus1=p4ulv26162.1.2 kV=0.2080002494301389 Vminpu=0.8 Vmaxpu=1.2 model=1 kW=9.42009 kvar=1.9078962877140453 Phases=2

New Load.load_p4ulv26262 conn=wye bus1=p4ulv26262.1.2 kV=0.2080002494301389 Vminpu=0.8 Vmaxpu=1.2 model=1 kW=3.90004 kvar=0.7898939222381405 Phases=2

New Load.load_p4ulv26583 conn=wye bus1=p4ulv26583.1.2 kV=0.2080002494301389 Vminpu=0.8 Vmaxpu=1.2 model=1 kW=8.50009 kvar=1.7304594343615136 Phases=2

New Load.load_p4ulv26688 conn=wye bus1=p4ulv26688.1.2 kV=0.2080002494301389 Vminpu=0.8 Vmaxpu=1.2 model=1 kW=8.76009 kvar=1.7788121424333347 Phases=2

New Load.load_p4ulv27023 conn=wye bus1=p4ulv27023.1.2 kV=0.2080002494301389 Vminpu=0.8 Vmaxpu=1.2 model=1 kW=7.320070000000001 kvar=1.4902294201222208 Phases=2

New Load.load_p4ulv27024 conn=wye bus1=p4ulv27024.1.2 kV=0.2080002494301389 Vminpu=0.8 Vmaxpu=1.2 model=1 kW=7.89008 kvar=1.5980159788034758 Phases=2

New Load.load_p4ulv27027 conn=wye bus1=p4ulv27027.1.2 kV=0.2080002494301389 Vminpu=0.8 Vmaxpu=1.2 model=1 kW=13.3801 kvar=2.7169451851490414 Phases=2

New Load.load_p4ulv27470 conn=wye bus1=p4ulv27470.1.2 kV=0.2080002494301389 Vminpu=0.8 Vmaxpu=1.2 model=1 kW=8.86009 kvar=1.799118008496735 Phases=2

New Load.load_p4ulv27562 conn=wye bus1=p4ulv27562.1.2 kV=0.2080002494301389 Vminpu=0.8 Vmaxpu=1.2 model=1 kW=7.70008 kvar=1.559534361890509 Phases=2

New Load.load_p4ulv27894 conn=wye bus1=p4ulv27894.1.2 kV=0.2080002494301389 Vminpu=0.8 Vmaxpu=1.2 model=1 kW=7.99008 kvar=1.6182694613892477 Phases=2

New Load.load_p4ulv28308 conn=wye bus1=p4ulv28308.1.2 kV=0.2080002494301389 Vminpu=0.8 Vmaxpu=1.2 model=1 kW=13.510100000000001 kvar=2.7433428110314617 Phases=2

New Load.load_p4ulv28310 conn=wye bus1=p4ulv28310.1.2 kV=0.2080002494301389 Vminpu=0.8 Vmaxpu=1.2 model=1 kW=6.26006 kvar=1.2711593990885048 Phases=2

New Load.load_p4ulv28311 conn=wye bus1=p4ulv28311.1.2 kV=0.2080002494301389 Vminpu=0.8 Vmaxpu=1.2 model=1 kW=9.42009 kvar=1.9078962877140453 Phases=2

New Load.load_p4ulv28312 conn=wye bus1=p4ulv28312.1.2 kV=0.2080002494301389 Vminpu=0.8 Vmaxpu=1.2 model=1 kW=10.8901 kvar=2.21132912017037 Phases=2

New Load.load_p4ulv28733 conn=wye bus1=p4ulv28733.1.2 kV=0.2080002494301389 Vminpu=0.8 Vmaxpu=1.2 model=1 kW=9.02009 kvar=1.8316073941981759 Phases=2

New Load.load_p4ulv28734 conn=wye bus1=p4ulv28734.1.2 kV=0.2080002494301389 Vminpu=0.8 Vmaxpu=1.2 model=1 kW=9.11009 kvar=1.8498826736552363 Phases=2

New Load.load_p4ulv28736 conn=wye bus1=p4ulv28736.1.2 kV=0.2080002494301389 Vminpu=0.8 Vmaxpu=1.2 model=1 kW=12.8301 kvar=2.5985420692371277 Phases=2

New Load.load_p4ulv29120 conn=wye bus1=p4ulv29120.1.2 kV=0.2080002494301389 Vminpu=0.8 Vmaxpu=1.2 model=1 kW=7.79008 kvar=1.581843211031744 Phases=2

New Load.load_p4ulv29122 conn=wye bus1=p4ulv29122.1.2 kV=0.2080002494301389 Vminpu=0.8 Vmaxpu=1.2 model=1 kW=8.73009 kvar=1.7681472578722188 Phases=2

New Load.load_p4ulv29123 conn=wye bus1=p4ulv29123.1.2 kV=0.2080002494301389 Vminpu=0.8 Vmaxpu=1.2 model=1 kW=8.10008 kvar=1.640548292233597 Phases=2

New Load.load_p4ulv30008 conn=wye bus1=p4ulv30008.1.2 kV=0.2080002494301389 Vminpu=0.8 Vmaxpu=1.2 model=1 kW=8.52009 kvar=1.7300780638811737 Phases=2

New Load.load_p4ulv30009 conn=wye bus1=p4ulv30009.1.2 kV=0.2080002494301389 Vminpu=0.8 Vmaxpu=1.2 model=1 kW=10.3101 kvar=2.088154308075674 Phases=2

New Load.load_p4ulv30440 conn=wye bus1=p4ulv30440.1.2 kV=0.2080002494301389 Vminpu=0.8 Vmaxpu=1.2 model=1 kW=9.24009 kvar=1.881109601762979 Phases=2

New Load.load_p4ulv30444 conn=wye bus1=p4ulv30444.1.2 kV=0.2080002494301389 Vminpu=0.8 Vmaxpu=1.2 model=1 kW=6.54007 kvar=1.3314360004287842 Phases=2

New Load.load_p4ulv30875 conn=wye bus1=p4ulv30875.1.2 kV=0.2080002494301389 Vminpu=0.8 Vmaxpu=1.2 model=1 kW=9.01009 kvar=1.8295768075918357 Phases=2

New Load.load_p4ulv30879 conn=wye bus1=p4ulv30879.1.2 kV=0.2080002494301389 Vminpu=0.8 Vmaxpu=1.2 model=1 kW=9.6701 kvar=1.958532019526734 Phases=2

New Load.load_p4ulv31288 conn=wye bus1=p4ulv31288.1.2 kV=0.2080002494301389 Vminpu=0.8 Vmaxpu=1.2 model=1 kW=8.71009 kvar=1.768659209401634 Phases=2

New Load.load_p4ulv31291 conn=wye bus1=p4ulv31291.1.2 kV=0.2080002494301389 Vminpu=0.8 Vmaxpu=1.2 model=1 kW=12.4001 kvar=2.5179476977277164 Phases=2

New Load.load_p4ulv31292 conn=wye bus1=p4ulv31292.1.2 kV=0.2080002494301389 Vminpu=0.8 Vmaxpu=1.2 model=1 kW=10.1301 kvar=2.0622990010724087 Phases=2

New Load.load_p4ulv31697 conn=wye bus1=p4ulv31697.1.2 kV=0.2080002494301389 Vminpu=0.8 Vmaxpu=1.2 model=1 kW=9.5301 kvar=1.9301771439066526 Phases=2

New Load.load_p4ulv31699 conn=wye bus1=p4ulv31699.1.2 kV=0.2080002494301389 Vminpu=0.8 Vmaxpu=1.2 model=1 kW=7.14007 kvar=1.449853051033035 Phases=2

New Load.load_p4ulv32117 conn=wye bus1=p4ulv32117.1.2 kV=0.2080002494301389 Vminpu=0.8 Vmaxpu=1.2 model=1 kW=6.21006 kvar=1.2610064660568046 Phases=2

New Load.load_p4ulv32537 conn=wye bus1=p4ulv32537.1.2 kV=0.2080002494301389 Vminpu=0.8 Vmaxpu=1.2 model=1 kW=6.94007 kvar=1.4092413189062343 Phases=2

New Load.load_p4ulv32538 conn=wye bus1=p4ulv32538.1.2 kV=0.2080002494301389 Vminpu=0.8 Vmaxpu=1.2 model=1 kW=9.27009 kvar=1.8823720593566768 Phases=2

New Load.load_p4ulv32540 conn=wye bus1=p4ulv22860.1.2 kV=0.2080002494301389 Vminpu=0.8 Vmaxpu=1.2 model=1 kW=7.86008 kvar=1.6001653618769034 Phases=2

New Load.load_p4ulv32541 conn=wye bus1=p4ulv32541.1.2 kV=0.2080002494301389 Vminpu=0.8 Vmaxpu=1.2 model=1 kW=6.47006 kvar=1.3104124753889972 Phases=2

New Load.load_p4ulv32543 conn=wye bus1=p4ulv32543.1.2 kV=0.2080002494301389 Vminpu=0.8 Vmaxpu=1.2 model=1 kW=7.15007 kvar=1.448138182320505 Phases=2

New Load.load_p4ulv32951 conn=wye bus1=p4ulv32951.1.2 kV=0.2080002494301389 Vminpu=0.8 Vmaxpu=1.2 model=1 kW=10.180100000000001 kvar=2.0724780664373723 Phases=2

New Load.load_p4ulv33364 conn=wye bus1=p4ulv10769.1.2 kV=0.2080002494301389 Vminpu=0.8 Vmaxpu=1.2 model=1 kW=5.93006 kvar=1.2010436694258284 Phases=2

New Load.load_p4ulv33365 conn=wye bus1=p4ulv33365.1.2 kV=0.2080002494301389 Vminpu=0.8 Vmaxpu=1.2 model=1 kW=11.2001 kvar=2.268410303089045 Phases=2

New Load.load_p4ulv34236 conn=wye bus1=p4ulv34236.1.2 kV=0.2080002494301389 Vminpu=0.8 Vmaxpu=1.2 model=1 kW=5.92006 kvar=1.1990183211672512 Phases=2

New Load.load_p4ulv34241 conn=wye bus1=p4ulv6555.1.2 kV=0.2080002494301389 Vminpu=0.8 Vmaxpu=1.2 model=1 kW=13.0001 kvar=2.639782894108119 Phases=2

New Load.load_p4ulv34675 conn=wye bus1=p4ulv34675.1.2 kV=0.2080002494301389 Vminpu=0.8 Vmaxpu=1.2 model=1 kW=8.36008 kvar=1.7019560155265416 Phases=2

New Load.load_p4ulv34677 conn=wye bus1=p4ulv34677.1.2 kV=0.2080002494301389 Vminpu=0.8 Vmaxpu=1.2 model=1 kW=6.90007 kvar=1.4011189724808741 Phases=2

New Load.load_p4ulv34678 conn=wye bus1=p4ulv34678.1.2 kV=0.2080002494301389 Vminpu=0.8 Vmaxpu=1.2 model=1 kW=6.350060000000001 kvar=1.2894346785455655 Phases=2

New Load.load_p4ulv35077 conn=wye bus1=p4ulv35077.1.2 kV=0.2080002494301389 Vminpu=0.8 Vmaxpu=1.2 model=1 kW=5.93006 kvar=1.2010436694258284 Phases=2

New Load.load_p4ulv35078 conn=wye bus1=p4ulv35078.1.2 kV=0.2080002494301389 Vminpu=0.8 Vmaxpu=1.2 model=1 kW=8.65009 kvar=1.7609966304564053 Phases=2

New Load.load_p4ulv35079 conn=wye bus1=p4ulv35079.1.2 kV=0.2080002494301389 Vminpu=0.8 Vmaxpu=1.2 model=1 kW=13.3901 kvar=2.7189757717553813 Phases=2

New Load.load_p4ulv35185 conn=wye bus1=p4ulv35185.1.2 kV=0.2080002494301389 Vminpu=0.8 Vmaxpu=1.2 model=1 kW=11.0601 kvar=2.2516296168607366 Phases=2

New Load.load_p4ulv35487 conn=wye bus1=p4ulv35487.1.2 kV=0.2080002494301389 Vminpu=0.8 Vmaxpu=1.2 model=1 kW=8.56009 kvar=1.7382004103065338 Phases=2

New Load.load_p4ulv36016 conn=wye bus1=p4ulv36016.1.2.3 kV=0.48 Vminpu=0.8 Vmaxpu=1.2 model=1 kW=44.9004 kvar=9.117415085931045 Phases=3

New Load.load_p4ulv36332 conn=wye bus1=p4ulv36332.1.2 kV=0.2080002494301389 Vminpu=0.8 Vmaxpu=1.2 model=1 kW=6.32006 kvar=1.2800322515103388 Phases=2

New Load.load_p4ulv36746 conn=wye bus1=p4ulv36746.1.2 kV=0.2080002494301389 Vminpu=0.8 Vmaxpu=1.2 model=1 kW=5.850060000000001 kvar=1.19096286257921 Phases=2

New Load.load_p4ulv37592 conn=wye bus1=p4ulv37592.1.2 kV=0.2080002494301389 Vminpu=0.8 Vmaxpu=1.2 model=1 kW=8.41008 kvar=1.7121350808915057 Phases=2

New Load.load_p4ulv38018 conn=wye bus1=p4ulv38018.1.2 kV=0.2080002494301389 Vminpu=0.8 Vmaxpu=1.2 model=1 kW=10.430100000000001 kvar=2.117922136278728 Phases=2

New Load.load_p4ulv38454 conn=wye bus1=p4ulv38454.1.2 kV=0.2080002494301389 Vminpu=0.8 Vmaxpu=1.2 model=1 kW=8.47008 kvar=1.7199231002628672 Phases=2

New Load.load_p4ulv38455 conn=wye bus1=p4ulv38455.1.2 kV=0.2080002494301389 Vminpu=0.8 Vmaxpu=1.2 model=1 kW=7.10007 kvar=1.4417307046076748 Phases=2

New Load.load_p4ulv38458 conn=wye bus1=p4ulv38458.1.2 kV=0.2080002494301389 Vminpu=0.8 Vmaxpu=1.2 model=1 kW=5.87006 kvar=1.1888915798743651 Phases=2

New Load.load_p4ulv38459 conn=wye bus1=p4ulv38459.1.2 kV=0.2080002494301389 Vminpu=0.8 Vmaxpu=1.2 model=1 kW=6.140060000000001 kvar=1.2500014416960006 Phases=2

New Load.load_p4ulv38460 conn=wye bus1=p4ulv38460.1.2.3 kV=0.48 Vminpu=0.8 Vmaxpu=1.2 model=1 kW=20.8202 kvar=4.227721926132095 Phases=3

New Load.load_p4ulv38461 conn=wye bus1=p4ulv38461.1.2 kV=0.2080002494301389 Vminpu=0.8 Vmaxpu=1.2 model=1 kW=7.26007 kvar=1.4704170131648537 Phases=2

New Load.load_p4ulv38830 conn=wye bus1=p4ulv38830.1.2 kV=0.2080002494301389 Vminpu=0.8 Vmaxpu=1.2 model=1 kW=10.3701 kvar=2.1111585148242353 Phases=2

New Load.load_p4ulv38833 conn=wye bus1=p4ulv38833.1.2 kV=0.2080002494301389 Vminpu=0.8 Vmaxpu=1.2 model=1 kW=6.37006 kvar=1.2901589928032249 Phases=2

New Load.load_p4ulv38835 conn=wye bus1=p4ulv38835.1.2 kV=0.2080002494301389 Vminpu=0.8 Vmaxpu=1.2 model=1 kW=14.9901 kvar=3.0438696287697877 Phases=2

New Load.load_p4ulv39241 conn=wye bus1=p4ulv39241.1.2 kV=0.2080002494301389 Vminpu=0.8 Vmaxpu=1.2 model=1 kW=9.370090000000001 kvar=1.8977695464211595 Phases=2

New Load.load_p4ulv39242 conn=wye bus1=p4ulv39242.1.2 kV=0.2080002494301389 Vminpu=0.8 Vmaxpu=1.2 model=1 kW=7.69008 kvar=1.5615373449683438 Phases=2

New Load.load_p4ulv39245 conn=wye bus1=p4ulv39245.1.2 kV=0.2080002494301389 Vminpu=0.8 Vmaxpu=1.2 model=1 kW=5.98006 kvar=1.2111704107187142 Phases=2

New Load.load_p4ulv39246 conn=wye bus1=p4ulv39246.1.2 kV=0.2080002494301389 Vminpu=0.8 Vmaxpu=1.2 model=1 kW=14.8801 kvar=3.0215331761000472 Phases=2

New Load.load_p4ulv39248 conn=wye bus1=p4ulv39248.1.2 kV=0.2080002494301389 Vminpu=0.8 Vmaxpu=1.2 model=1 kW=7.72008 kvar=1.5716639788550044 Phases=2

New Load.load_p4ulv39676 conn=wye bus1=p4ulv39676.1.2 kV=0.2080002494301389 Vminpu=0.8 Vmaxpu=1.2 model=1 kW=6.30006 kvar=1.2792817455138652 Phases=2

New Load.load_p4ulv39677 conn=wye bus1=p4ulv39677.1.2 kV=0.2080002494301389 Vminpu=0.8 Vmaxpu=1.2 model=1 kW=12.1601 kvar=2.469213619175555 Phases=2

New Load.load_p4ulv40080 conn=wye bus1=p4ulv40080.1.2 kV=0.2080002494301389 Vminpu=0.8 Vmaxpu=1.2 model=1 kW=19.3802 kvar=3.93531745481913 Phases=2

New Load.load_p4ulv40084 conn=wye bus1=p4ulv40084.1.2 kV=0.2080002494301389 Vminpu=0.8 Vmaxpu=1.2 model=1 kW=10.8301 kvar=2.1991456005323298 Phases=2

New Load.load_p4ulv40085 conn=wye bus1=p4ulv40085.1.2 kV=0.2080002494301389 Vminpu=0.8 Vmaxpu=1.2 model=1 kW=14.5201 kvar=2.948432058271805 Phases=2

New Load.load_p4ulv40086 conn=wye bus1=p4ulv40086.1.2 kV=0.2080002494301389 Vminpu=0.8 Vmaxpu=1.2 model=1 kW=18.0402 kvar=3.6632188495695632 Phases=2

New Load.load_p4ulv40178 conn=wye bus1=p4ulv40178.1.2 kV=0.2080002494301389 Vminpu=0.8 Vmaxpu=1.2 model=1 kW=7.17007 kvar=1.459692224027329 Phases=2

New Load.load_p4ulv41377 conn=wye bus1=p4ulv41377.1.2 kV=0.2080002494301389 Vminpu=0.8 Vmaxpu=1.2 model=1 kW=9.05009 kvar=1.837699154017196 Phases=2

New Load.load_p4ulv41766 conn=wye bus1=p4ulv41766.1.2 kV=0.2080002494301389 Vminpu=0.8 Vmaxpu=1.2 model=1 kW=7.94008 kvar=1.608142720096362 Phases=2

New Load.load_p4ulv42171 conn=wye bus1=p4ulv42171.1.2 kV=0.2080002494301389 Vminpu=0.8 Vmaxpu=1.2 model=1 kW=5.68006 kvar=1.1504099629613984 Phases=2

New Load.load_p4ulv42172 conn=wye bus1=p4ulv42172.1.2 kV=0.2080002494301389 Vminpu=0.8 Vmaxpu=1.2 model=1 kW=6.28006 kvar=1.2686336247849492 Phases=2

New Load.load_p4ulv42174 conn=wye bus1=p4ulv42174.1.2 kV=0.2080002494301389 Vminpu=0.8 Vmaxpu=1.2 model=1 kW=19.3502 kvar=3.9292256950001097 Phases=2

New Load.load_p4ulv42592 conn=wye bus1=p4ulv42592.1.2 kV=0.2080002494301389 Vminpu=0.8 Vmaxpu=1.2 model=1 kW=9.15009 kvar=1.8580050200805964 Phases=2

New Load.load_p4ulv43015 conn=wye bus1=p4ulv43015.1.2 kV=0.2080002494301389 Vminpu=0.8 Vmaxpu=1.2 model=1 kW=8.90009 kvar=1.8118919572812247 Phases=2

New Load.load_p4ulv43016 conn=wye bus1=p4ulv43016.1.2 kV=0.2080002494301389 Vminpu=0.8 Vmaxpu=1.2 model=1 kW=7.56008 kvar=1.5311794862704282 Phases=2

New Load.load_p4ulv43017 conn=wye bus1=p4ulv43017.1.2 kV=0.2080002494301389 Vminpu=0.8 Vmaxpu=1.2 model=1 kW=8.69009 kvar=1.7600458648379103 Phases=2

New Load.load_p4ulv43019 conn=wye bus1=p4ulv43019.1.2 kV=0.2080002494301389 Vminpu=0.8 Vmaxpu=1.2 model=1 kW=7.87008 kvar=1.5980879038824647 Phases=2

New Load.load_p4ulv43461 conn=wye bus1=p4ulv43461.1.2 kV=0.2080002494301389 Vminpu=0.8 Vmaxpu=1.2 model=1 kW=15.1202 kvar=3.070287560518272 Phases=2

New Load.load_p4ulv43878 conn=wye bus1=p4ulv43878.1.2 kV=0.2080002494301389 Vminpu=0.8 Vmaxpu=1.2 model=1 kW=6.21006 kvar=1.2610064660568046 Phases=2

