New Line.l(r:p1rdt46lv-p1rlv47) Units=km Length=0.0151325 bus1=p1rdt46lv.1.2 bus2=p1rlv47.1.2 switch=n enabled=y phases=2 Linecode=1P_OH_AL_2/0_Rucina_0_416_0_2_2_2_2_2_2_2_2_2_2_2_2_2_2_2_2_2_2_2_2_2_2_2_2_2_2_2_2_2

New Line.l(r:p1rdt47lv-p1rlv48) Units=km Length=0.0319082 bus1=p1rdt47lv.1.2 bus2=p1rlv48.1.2 switch=n enabled=y phases=2 Linecode=1P_OH_AL_4/0_Zuzara_0_416_0_2_2_2_2_2_2_2_2_2_2_2_2_2_2_2_2_2_2_2_2_2_2_2_2_2_2_2_2_2

New Line.l(r:p1rdt47lv-p1rlv4490) Units=km Length=0.0191374 bus1=p1rdt47lv.1.2 bus2=p1rlv4490.1.2 switch=n enabled=y phases=2 Linecode=1P_OH_AL_2/0_Rucina_0_416_0_2_2_2_2_2_2_2_2_2_2_2_2_2_2_2_2_2_2_2_2_2_2_2_2_2_2_2_2_2

New Line.l(r:p1rdt47lv-p1rlv12931) Units=km Length=0.0379226 bus1=p1rdt47lv.1.2 bus2=p1rlv12931.1.2 switch=n enabled=y phases=2 Linecode=1P_OH_AL_4/0_Zuzara_0_416_0_2_2_2_2_2_2_2_2_2_2_2_2_2_2_2_2_2_2_2_2_2_2_2_2_2_2_2_2_2

New Line.l(r:p1rdt176lv-p1rlv182) Units=km Length=0.0691163 bus1=p1rdt176lv.1.2 bus2=p1rlv182.1.2 switch=n enabled=y phases=2 Linecode=1P_UG_AL_1/0_Brenau_0_416_0_2_2_2_2_2_2_2_2_2_2_2_2_2_2_2_2_2_2_2_2_2_2_2_2_2_2_2_2_2

New Line.l(r:p1rdt177lv-p1rlv183) Units=km Length=0.013039 bus1=p1rdt177lv.1.2 bus2=p1rlv183.1.2 switch=n enabled=y phases=2 Linecode=1P_OH_AL_2/0_Rucina_0_416_0_2_2_2_2_2_2_2_2_2_2_2_2_2_2_2_2_2_2_2_2_2_2_2_2_2_2_2_2_2

New Line.l(r:p1rdt177lv-p1rlv2885) Units=km Length=0.013039 bus1=p1rdt177lv.1.2 bus2=p1rlv2885.1.2 switch=n enabled=y phases=2 Linecode=1P_OH_AL_2/0_Rucina_0_416_0_2_2_2_2_2_2_2_2_2_2_2_2_2_2_2_2_2_2_2_2_2_2_2_2_2_2_2_2_2

New Line.l(r:p1rdt178lv-p1rlv184) Units=km Length=0.001 bus1=p1rdt178lv.1.2 bus2=p1rlv184.1.2 switch=n enabled=y phases=2 Linecode=1P_OH_AL_4_Periwinkle_0_416_0_2_2_2_2_2_2_2_2_2_2_2_2_2_2_2_2_2_2_2_2_2_2_2_2_2_2_2_2_2

New Line.l(r:p1rdm746-p1rlv321) Units=km Length=0.005071370000000001 bus1=p1rdm746.1.2 bus2=p1rlv321.1.2 switch=n enabled=y phases=2 Linecode=1P_OH_AL_2/0_Rucina_0_416_0_2_2_2_2_2_2_2_2_2_2_2_2_2_2_2_2_2_2_2_2_2_2_2_2_2_2_2_2_2

New Line.l(r:p1rdm746-p1rdt312lv) Units=km Length=0.019264 bus1=p1rdt312lv.1.2 bus2=p1rdm746.1.2 switch=n enabled=y phases=2 Linecode=1P_OH_AL_2/0_Rucina_0_416_0_2_2_2_2_2_2_2_2_2_2_2_2_2_2_2_2_2_2_2_2_2_2_2_2_2_2_2_2_2

New Line.l(r:p1rdm747-p1rlv10458) Units=km Length=0.0151449 bus1=p1rdm747.1.2 bus2=p1rlv10458.1.2 switch=n enabled=y phases=2 Linecode=1P_OH_AL_2/0_Rucina_0_416_0_2_2_2_2_2_2_2_2_2_2_2_2_2_2_2_2_2_2_2_2_2_2_2_2_2_2_2_2_2

New Line.l(r:p1rdm747-p1rdt312lv) Units=km Length=0.0385095 bus1=p1rdt312lv.1.2 bus2=p1rdm747.1.2 switch=n enabled=y phases=2 Linecode=1P_OH_AL_4/0_Zuzara_0_416_0_2_2_2_2_2_2_2_2_2_2_2_2_2_2_2_2_2_2_2_2_2_2_2_2_2_2_2_2_2

New Line.l(r:p1rdt313lv-p1rlv322) Units=km Length=0.001 bus1=p1rdt313lv.1.2 bus2=p1rlv322.1.2 switch=n enabled=y phases=2 Linecode=1P_OH_AL_4_Periwinkle_0_416_0_2_2_2_2_2_2_2_2_2_2_2_2_2_2_2_2_2_2_2_2_2_2_2_2_2_2_2_2_2

New Line.l(r:p1rdt314lv-p1rlv323) Units=km Length=0.001 bus1=p1rdt314lv.1.2 bus2=p1rlv323.1.2 switch=n enabled=y phases=2 Linecode=1P_OH_AL_4_Periwinkle_0_416_0_2_2_2_2_2_2_2_2_2_2_2_2_2_2_2_2_2_2_2_2_2_2_2_2_2_2_2_2_2

New Line.l(r:p1rdt315lv-p1rlv324) Units=km Length=0.026507700000000002 bus1=p1rdt315lv.1.2 bus2=p1rlv324.1.2 switch=n enabled=y phases=2 Linecode=1P_OH_AL_2/0_Rucina_0_416_0_2_2_2_2_2_2_2_2_2_2_2_2_2_2_2_2_2_2_2_2_2_2_2_2_2_2_2_2_2

New Line.l(r:p1rdt317lv-p1rlv326) Units=km Length=0.0765077 bus1=p1rdt317lv.1.2 bus2=p1rlv326.1.2 switch=n enabled=y phases=2 Linecode=1P_OH_AL_4/0_Zuzara_0_416_0_2_2_2_2_2_2_2_2_2_2_2_2_2_2_2_2_2_2_2_2_2_2_2_2_2_2_2_2_2

New Line.l(r:p1rdt435lv-p1rlv445) Units=km Length=0.0158789 bus1=p1rdt435lv.1.2 bus2=p1rlv445.1.2 switch=n enabled=y phases=2 Linecode=1P_OH_AL_2/0_Rucina_0_416_0_2_2_2_2_2_2_2_2_2_2_2_2_2_2_2_2_2_2_2_2_2_2_2_2_2_2_2_2_2

New Line.l(r:p1rdt435lv-p1rlv3252) Units=km Length=0.0158789 bus1=p1rdt435lv.1.2 bus2=p1rlv3252.1.2 switch=n enabled=y phases=2 Linecode=1P_OH_AL_2/0_Rucina_0_416_0_2_2_2_2_2_2_2_2_2_2_2_2_2_2_2_2_2_2_2_2_2_2_2_2_2_2_2_2_2

New Line.l(r:p1rdt436lv-p1rlv6467) Units=km Length=0.0342631 bus1=p1rdt436lv.1.2 bus2=p1rlv6467.1.2 switch=n enabled=y phases=2 Linecode=1P_OH_AL_4/0_Zuzara_0_416_0_2_2_2_2_2_2_2_2_2_2_2_2_2_2_2_2_2_2_2_2_2_2_2_2_2_2_2_2_2

New Line.l(r:p1rdm1030-p1rlv446) Units=km Length=0.020726100000000004 bus1=p1rdm1030.1.2 bus2=p1rlv446.1.2 switch=n enabled=y phases=2 Linecode=1P_OH_AL_2/0_Rucina_0_416_0_2_2_2_2_2_2_2_2_2_2_2_2_2_2_2_2_2_2_2_2_2_2_2_2_2_2_2_2_2

New Line.l(r:p1rdm1030-p1rdt436lv) Units=km Length=0.0173007 bus1=p1rdt436lv.1.2 bus2=p1rdm1030.1.2 switch=n enabled=y phases=2 Linecode=1P_OH_AL_2/0_Rucina_0_416_0_2_2_2_2_2_2_2_2_2_2_2_2_2_2_2_2_2_2_2_2_2_2_2_2_2_2_2_2_2

New Line.l(r:p1rdt437lv-p1rlv447) Units=km Length=0.0266949 bus1=p1rdt437lv.1.2 bus2=p1rlv447.1.2 switch=n enabled=y phases=2 Linecode=1P_OH_AL_2/0_Rucina_0_416_0_2_2_2_2_2_2_2_2_2_2_2_2_2_2_2_2_2_2_2_2_2_2_2_2_2_2_2_2_2

New Line.l(r:p1rdt437lv-p1rlv4196) Units=km Length=0.0266949 bus1=p1rdt437lv.1.2 bus2=p1rlv4196.1.2 switch=n enabled=y phases=2 Linecode=1P_OH_AL_2/0_Rucina_0_416_0_2_2_2_2_2_2_2_2_2_2_2_2_2_2_2_2_2_2_2_2_2_2_2_2_2_2_2_2_2

New Line.l(r:p1rdt438lv-p1rlv448) Units=km Length=0.027543100000000004 bus1=p1rdt438lv.1.2 bus2=p1rlv448.1.2 switch=n enabled=y phases=2 Linecode=1P_OH_AL_4/0_Zuzara_0_416_0_2_2_2_2_2_2_2_2_2_2_2_2_2_2_2_2_2_2_2_2_2_2_2_2_2_2_2_2_2

New Line.l(r:p1rdm1035-p1rlv449) Units=km Length=0.0781254 bus1=p1rdm1035.1.2 bus2=p1rlv449.1.2 switch=n enabled=y phases=2 Linecode=1P_OH_AL_4/0_Zuzara_0_416_0_2_2_2_2_2_2_2_2_2_2_2_2_2_2_2_2_2_2_2_2_2_2_2_2_2_2_2_2_2

New Line.l(r:p1rdm1035-p1rdt439lv) Units=km Length=0.0193806 bus1=p1rdt439lv.1.2 bus2=p1rdm1035.1.2 switch=n enabled=y phases=2 Linecode=1P_OH_AL_2/0_Rucina_0_416_0_2_2_2_2_2_2_2_2_2_2_2_2_2_2_2_2_2_2_2_2_2_2_2_2_2_2_2_2_2

New Line.l(r:p1rdm1036-p1rlv9118) Units=km Length=0.10423500000000001 bus1=p1rdm1036.1.2 bus2=p1rlv9118.1.2 switch=n enabled=y phases=2 Linecode=1P_OH_AL_4/0_Zuzara_0_416_0_2_2_2_2_2_2_2_2_2_2_2_2_2_2_2_2_2_2_2_2_2_2_2_2_2_2_2_2_2

New Line.l(r:p1rdm1036-p1rlv12933) Units=km Length=0.0916516 bus1=p1rdm1036.1.2 bus2=p1rlv12933.1.2 switch=n enabled=y phases=2 Linecode=1P_OH_AL_4/0_Zuzara_0_416_0_2_2_2_2_2_2_2_2_2_2_2_2_2_2_2_2_2_2_2_2_2_2_2_2_2_2_2_2_2

New Line.l(r:p1rdm1036-p1rdt439lv) Units=km Length=0.0193806 bus1=p1rdt439lv.1.2 bus2=p1rdm1036.1.2 switch=n enabled=y phases=2 Linecode=1P_OH_AL_2/0_Rucina_0_416_0_2_2_2_2_2_2_2_2_2_2_2_2_2_2_2_2_2_2_2_2_2_2_2_2_2_2_2_2_2

New Line.l(r:p1rdt556lv-p1rlv570) Units=km Length=0.0594606 bus1=p1rdt556lv.1.2 bus2=p1rlv570.1.2 switch=n enabled=y phases=2 Linecode=1P_OH_AL_4/0_Zuzara_0_416_0_2_2_2_2_2_2_2_2_2_2_2_2_2_2_2_2_2_2_2_2_2_2_2_2_2_2_2_2_2

New Line.l(r:p1rdm1299-p1rlv4488) Units=km Length=0.0481786 bus1=p1rdm1299.1.2 bus2=p1rlv4488.1.2 switch=n enabled=y phases=2 Linecode=1P_OH_AL_4/0_Zuzara_0_416_0_2_2_2_2_2_2_2_2_2_2_2_2_2_2_2_2_2_2_2_2_2_2_2_2_2_2_2_2_2

New Line.l(r:p1rdm1299-p1rdt556lv) Units=km Length=0.00657433 bus1=p1rdt556lv.1.2 bus2=p1rdm1299.1.2 switch=n enabled=y phases=2 Linecode=1P_OH_AL_2/0_Rucina_0_416_0_2_2_2_2_2_2_2_2_2_2_2_2_2_2_2_2_2_2_2_2_2_2_2_2_2_2_2_2_2

New Line.l(r:p1rdt557lv-p1rlv571) Units=km Length=0.0664467 bus1=p1rdt557lv.1.2 bus2=p1rlv571.1.2 switch=n enabled=y phases=2 Linecode=1P_OH_AL_4/0_Zuzara_0_416_0_2_2_2_2_2_2_2_2_2_2_2_2_2_2_2_2_2_2_2_2_2_2_2_2_2_2_2_2_2

New Line.l(r:p1rdt559lv-p1rlv573) Units=km Length=0.0378511 bus1=p1rdt559lv.1.2 bus2=p1rlv573.1.2 switch=n enabled=y phases=2 Linecode=1P_OH_AL_4/0_Zuzara_0_416_0_2_2_2_2_2_2_2_2_2_2_2_2_2_2_2_2_2_2_2_2_2_2_2_2_2_2_2_2_2

New Line.l(r:p1rdt559lv-p1rlv1655) Units=km Length=0.0378511 bus1=p1rdt559lv.1.2 bus2=p1rlv1655.1.2 switch=n enabled=y phases=2 Linecode=1P_OH_AL_4/0_Zuzara_0_416_0_2_2_2_2_2_2_2_2_2_2_2_2_2_2_2_2_2_2_2_2_2_2_2_2_2_2_2_2_2

New Line.l(r:p1rdt561lv-p1rlv575) Units=km Length=0.127224 bus1=p1rdt561lv.1.2 bus2=p1rlv575.1.2 switch=n enabled=y phases=2 Linecode=1P_OH_AL_4/0_Zuzara_0_416_0_2_2_2_2_2_2_2_2_2_2_2_2_2_2_2_2_2_2_2_2_2_2_2_2_2_2_2_2_2

New Line.l(r:p1rdt561lv-p1rlv1125) Units=km Length=0.0320493 bus1=p1rdt561lv.1.2 bus2=p1rlv1125.1.2 switch=n enabled=y phases=2 Linecode=1P_OH_AL_4/0_Zuzara_0_416_0_2_2_2_2_2_2_2_2_2_2_2_2_2_2_2_2_2_2_2_2_2_2_2_2_2_2_2_2_2

New Line.l(r:p1rdt561lv-p1rlv11564) Units=km Length=0.014908600000000001 bus1=p1rdt561lv.1.2 bus2=p1rlv11564.1.2 switch=n enabled=y phases=2 Linecode=1P_OH_AL_2/0_Rucina_0_416_0_2_2_2_2_2_2_2_2_2_2_2_2_2_2_2_2_2_2_2_2_2_2_2_2_2_2_2_2_2

New Line.l(r:p1rdm1307-p1rlv10740) Units=km Length=0.00475593 bus1=p1rdm1307.1.2 bus2=p1rlv10740.1.2 switch=n enabled=y phases=2 Linecode=1P_OH_AL_2/0_Rucina_0_416_0_2_2_2_2_2_2_2_2_2_2_2_2_2_2_2_2_2_2_2_2_2_2_2_2_2_2_2_2_2

New Line.l(r:p1rdm1307-p1rdt561lv) Units=km Length=0.0143075 bus1=p1rdt561lv.1.2 bus2=p1rdm1307.1.2 switch=n enabled=y phases=2 Linecode=1P_OH_AL_2/0_Rucina_0_416_0_2_2_2_2_2_2_2_2_2_2_2_2_2_2_2_2_2_2_2_2_2_2_2_2_2_2_2_2_2

New Line.l(r:p1rdt689lv-p1rlv719) Units=km Length=0.0814499 bus1=p1rdt689lv.1.2 bus2=p1rlv719.1.2 switch=n enabled=y phases=2 Linecode=1P_OH_AL_4/0_Zuzara_0_416_0_2_2_2_2_2_2_2_2_2_2_2_2_2_2_2_2_2_2_2_2_2_2_2_2_2_2_2_2_2

New Line.l(r:p1rdt690lv-p1rlv720) Units=km Length=0.017951 bus1=p1rdt690lv.1.2 bus2=p1rlv720.1.2 switch=n enabled=y phases=2 Linecode=1P_OH_AL_2/0_Rucina_0_416_0_2_2_2_2_2_2_2_2_2_2_2_2_2_2_2_2_2_2_2_2_2_2_2_2_2_2_2_2_2

New Line.l(r:p1rdt690lv-p1rlv1009) Units=km Length=0.0313896 bus1=p1rdt690lv.1.2 bus2=p1rlv1009.1.2 switch=n enabled=y phases=2 Linecode=1P_OH_AL_4/0_Zuzara_0_416_0_2_2_2_2_2_2_2_2_2_2_2_2_2_2_2_2_2_2_2_2_2_2_2_2_2_2_2_2_2

New Line.l(r:p1rdt690lv-p1rlv3253) Units=km Length=0.0314035 bus1=p1rdt690lv.1.2 bus2=p1rlv3253.1.2 switch=n enabled=y phases=2 Linecode=1P_OH_AL_4/0_Zuzara_0_416_0_2_2_2_2_2_2_2_2_2_2_2_2_2_2_2_2_2_2_2_2_2_2_2_2_2_2_2_2_2

New Line.l(r:p1rdt690lv-p1rlv11561) Units=km Length=0.0205558 bus1=p1rdt690lv.1.2 bus2=p1rlv11561.1.2 switch=n enabled=y phases=2 Linecode=1P_OH_AL_2/0_Rucina_0_416_0_2_2_2_2_2_2_2_2_2_2_2_2_2_2_2_2_2_2_2_2_2_2_2_2_2_2_2_2_2

New Line.l(r:p1rdt691lv-p1rlv721) Units=km Length=0.001 bus1=p1rdt691lv.1.2 bus2=p1rlv721.1.2 switch=n enabled=y phases=2 Linecode=1P_OH_AL_4_Periwinkle_0_416_0_2_2_2_2_2_2_2_2_2_2_2_2_2_2_2_2_2_2_2_2_2_2_2_2_2_2_2_2_2

New Line.l(r:p1rdm1872-p1rlv861) Units=km Length=0.0346681 bus1=p1rdm1872.1.2 bus2=p1rlv861.1.2 switch=n enabled=y phases=2 Linecode=1P_OH_AL_4/0_Zuzara_0_416_0_2_2_2_2_2_2_2_2_2_2_2_2_2_2_2_2_2_2_2_2_2_2_2_2_2_2_2_2_2

New Line.l(r:p1rdm1872-p1rdt824lv) Units=km Length=0.0393976 bus1=p1rdt824lv.1.2 bus2=p1rdm1872.1.2 switch=n enabled=y phases=2 Linecode=1P_OH_AL_4/0_Zuzara_0_416_0_2_2_2_2_2_2_2_2_2_2_2_2_2_2_2_2_2_2_2_2_2_2_2_2_2_2_2_2_2

New Line.l(r:p1rdm1873-p1rlv12414) Units=km Length=0.03678820000000001 bus1=p1rdm1873.1.2 bus2=p1rlv12414.1.2 switch=n enabled=y phases=2 Linecode=1P_OH_AL_4/0_Zuzara_0_416_0_2_2_2_2_2_2_2_2_2_2_2_2_2_2_2_2_2_2_2_2_2_2_2_2_2_2_2_2_2

New Line.l(r:p1rdm1873-p1rdt824lv) Units=km Length=0.0196988 bus1=p1rdt824lv.1.2 bus2=p1rdm1873.1.2 switch=n enabled=y phases=2 Linecode=1P_OH_AL_2/0_Rucina_0_416_0_2_2_2_2_2_2_2_2_2_2_2_2_2_2_2_2_2_2_2_2_2_2_2_2_2_2_2_2_2

New Line.l(r:p1rdt826lv-p1rlv863) Units=km Length=0.050257 bus1=p1rdt826lv.1.2 bus2=p1rlv863.1.2 switch=n enabled=y phases=2 Linecode=1P_OH_AL_4/0_Zuzara_0_416_0_2_2_2_2_2_2_2_2_2_2_2_2_2_2_2_2_2_2_2_2_2_2_2_2_2_2_2_2_2

New Line.l(r:p1rdm1878-p1rlv9378) Units=km Length=0.0388162 bus1=p1rdm1878.1.2 bus2=p1rlv9378.1.2 switch=n enabled=y phases=2 Linecode=1P_OH_AL_4/0_Zuzara_0_416_0_2_2_2_2_2_2_2_2_2_2_2_2_2_2_2_2_2_2_2_2_2_2_2_2_2_2_2_2_2

New Line.l(r:p1rdm1878-p1rdt826lv) Units=km Length=0.0197806 bus1=p1rdt826lv.1.2 bus2=p1rdm1878.1.2 switch=n enabled=y phases=2 Linecode=1P_OH_AL_2/0_Rucina_0_416_0_2_2_2_2_2_2_2_2_2_2_2_2_2_2_2_2_2_2_2_2_2_2_2_2_2_2_2_2_2

New Line.l(r:p1rdt960lv-p1rlv1008) Units=km Length=0.0171505 bus1=p1rdt960lv.1.2 bus2=p1rlv1008.1.2 switch=n enabled=y phases=2 Linecode=1P_OH_AL_2/0_Rucina_0_416_0_2_2_2_2_2_2_2_2_2_2_2_2_2_2_2_2_2_2_2_2_2_2_2_2_2_2_2_2_2

New Line.l(r:p1rdt960lv-p1rlv7679) Units=km Length=0.0171505 bus1=p1rdt960lv.1.2 bus2=p1rlv7679.1.2 switch=n enabled=y phases=2 Linecode=1P_OH_AL_2/0_Rucina_0_416_0_2_2_2_2_2_2_2_2_2_2_2_2_2_2_2_2_2_2_2_2_2_2_2_2_2_2_2_2_2

New Line.l(r:p1rdt966lv-p1rlv1016) Units=km Length=0.001 bus1=p1rdt966lv.1.2 bus2=p1rlv1016.1.2 switch=n enabled=y phases=2 Linecode=1P_OH_AL_4_Periwinkle_0_416_0_2_2_2_2_2_2_2_2_2_2_2_2_2_2_2_2_2_2_2_2_2_2_2_2_2_2_2_2_2

New Line.l(r:p1rdt1064lv-p1rlv1126) Units=km Length=0.0447083 bus1=p1rdt1064lv.1.2 bus2=p1rlv1126.1.2 switch=n enabled=y phases=2 Linecode=1P_OH_AL_4/0_Zuzara_0_416_0_2_2_2_2_2_2_2_2_2_2_2_2_2_2_2_2_2_2_2_2_2_2_2_2_2_2_2_2_2

New Line.l(r:p1rdt1064lv-p1rlv2476) Units=km Length=0.0447083 bus1=p1rdt1064lv.1.2 bus2=p1rlv2476.1.2 switch=n enabled=y phases=2 Linecode=1P_OH_AL_4/0_Zuzara_0_416_0_2_2_2_2_2_2_2_2_2_2_2_2_2_2_2_2_2_2_2_2_2_2_2_2_2_2_2_2_2

New Line.l(r:p1rdt1065lv-p1rlv1127) Units=km Length=0.0798186 bus1=p1rdt1065lv.1.2 bus2=p1rlv1127.1.2 switch=n enabled=y phases=2 Linecode=1P_OH_AL_4/0_Zuzara_0_416_0_2_2_2_2_2_2_2_2_2_2_2_2_2_2_2_2_2_2_2_2_2_2_2_2_2_2_2_2_2

New Line.l(r:p1rdt1172lv-p1rlv5043) Units=km Length=0.0306341 bus1=p1rdt1172lv.1.2 bus2=p1rlv5043.1.2 switch=n enabled=y phases=2 Linecode=1P_OH_AL_4/0_Zuzara_0_416_0_2_2_2_2_2_2_2_2_2_2_2_2_2_2_2_2_2_2_2_2_2_2_2_2_2_2_2_2_2

New Line.l(r:p1rdt1172lv-p1rlv6466) Units=km Length=0.06749540000000001 bus1=p1rdt1172lv.1.2 bus2=p1rlv6466.1.2 switch=n enabled=y phases=2 Linecode=1P_OH_AL_4/0_Zuzara_0_416_0_2_2_2_2_2_2_2_2_2_2_2_2_2_2_2_2_2_2_2_2_2_2_2_2_2_2_2_2_2

New Line.l(r:p1rdm2608-p1rlv1243) Units=km Length=0.06101750000000001 bus1=p1rdm2608.1.2 bus2=p1rlv1243.1.2 switch=n enabled=y phases=2 Linecode=1P_OH_AL_4/0_Zuzara_0_416_0_2_2_2_2_2_2_2_2_2_2_2_2_2_2_2_2_2_2_2_2_2_2_2_2_2_2_2_2_2

New Line.l(r:p1rdm2608-p1rdt1172lv) Units=km Length=0.0140754 bus1=p1rdt1172lv.1.2 bus2=p1rdm2608.1.2 switch=n enabled=y phases=2 Linecode=1P_OH_AL_2/0_Rucina_0_416_0_2_2_2_2_2_2_2_2_2_2_2_2_2_2_2_2_2_2_2_2_2_2_2_2_2_2_2_2_2

New Line.l(r:p1rdm2611-p1rlv10597) Units=km Length=0.0226932 bus1=p1rdm2611.1.2 bus2=p1rlv10597.1.2 switch=n enabled=y phases=2 Linecode=1P_OH_AL_2/0_Rucina_0_416_0_2_2_2_2_2_2_2_2_2_2_2_2_2_2_2_2_2_2_2_2_2_2_2_2_2_2_2_2_2

New Line.l(r:p1rdm2611-p1rdt1172lv) Units=km Length=0.0167013 bus1=p1rdt1172lv.1.2 bus2=p1rdm2611.1.2 switch=n enabled=y phases=2 Linecode=1P_OH_AL_2/0_Rucina_0_416_0_2_2_2_2_2_2_2_2_2_2_2_2_2_2_2_2_2_2_2_2_2_2_2_2_2_2_2_2_2

New Line.l(r:p1rdt1310lv-p1rlv1401) Units=km Length=0.018005700000000003 bus1=p1rdt1310lv.1.2 bus2=p1rlv1401.1.2 switch=n enabled=y phases=2 Linecode=1P_OH_AL_2/0_Rucina_0_416_0_2_2_2_2_2_2_2_2_2_2_2_2_2_2_2_2_2_2_2_2_2_2_2_2_2_2_2_2_2

New Line.l(r:p1rdt1310lv-p1rlv8447) Units=km Length=0.0238463 bus1=p1rdt1310lv.1.2 bus2=p1rlv8447.1.2 switch=n enabled=y phases=2 Linecode=1P_OH_AL_2/0_Rucina_0_416_0_2_2_2_2_2_2_2_2_2_2_2_2_2_2_2_2_2_2_2_2_2_2_2_2_2_2_2_2_2

New Line.l(r:p1rdt1310lv-p1rlv10736) Units=km Length=0.0254861 bus1=p1rdt1310lv.1.2 bus2=p1rlv10736.1.2 switch=n enabled=y phases=2 Linecode=1P_OH_AL_2/0_Rucina_0_416_0_2_2_2_2_2_2_2_2_2_2_2_2_2_2_2_2_2_2_2_2_2_2_2_2_2_2_2_2_2

New Line.l(r:p1rdt1312lv-p1rlv1404) Units=km Length=0.0510054 bus1=p1rdt1312lv.1.2 bus2=p1rlv1404.1.2 switch=n enabled=y phases=2 Linecode=1P_OH_AL_4/0_Zuzara_0_416_0_2_2_2_2_2_2_2_2_2_2_2_2_2_2_2_2_2_2_2_2_2_2_2_2_2_2_2_2_2

New Line.l(r:p1rdm2910-p1rlv1536) Units=km Length=0.05943760000000001 bus1=p1rdm2910.1.2 bus2=p1rlv1536.1.2 switch=n enabled=y phases=2 Linecode=1P_OH_AL_4/0_Zuzara_0_416_0_2_2_2_2_2_2_2_2_2_2_2_2_2_2_2_2_2_2_2_2_2_2_2_2_2_2_2_2_2

New Line.l(r:p1rdm2910-p1rdt1312lv) Units=km Length=0.0198903 bus1=p1rdt1312lv.1.2 bus2=p1rdm2910.1.2 switch=n enabled=y phases=2 Linecode=1P_OH_AL_2/0_Rucina_0_416_0_2_2_2_2_2_2_2_2_2_2_2_2_2_2_2_2_2_2_2_2_2_2_2_2_2_2_2_2_2

New Line.l(r:p1rdt1313lv-p1rlv1405) Units=km Length=0.001 bus1=p1rdt1313lv.1.2 bus2=p1rlv1405.1.2 switch=n enabled=y phases=2 Linecode=1P_OH_AL_4_Periwinkle_0_416_0_2_2_2_2_2_2_2_2_2_2_2_2_2_2_2_2_2_2_2_2_2_2_2_2_2_2_2_2_2

New Line.l(r:p1rdt1425lv-p1rlv1529) Units=km Length=0.001 bus1=p1rdt1425lv.1.2 bus2=p1rlv1529.1.2 switch=n enabled=y phases=2 Linecode=1P_OH_AL_4_Periwinkle_0_416_0_2_2_2_2_2_2_2_2_2_2_2_2_2_2_2_2_2_2_2_2_2_2_2_2_2_2_2_2_2

New Line.l(r:p1rdt1431lv-p1rlv1535) Units=km Length=0.0608026 bus1=p1rdt1431lv.1.2 bus2=p1rlv1535.1.2 switch=n enabled=y phases=2 Linecode=1P_OH_AL_4/0_Zuzara_0_416_0_2_2_2_2_2_2_2_2_2_2_2_2_2_2_2_2_2_2_2_2_2_2_2_2_2_2_2_2_2

New Line.l(r:p1rdm3149-p1rlv1537) Units=km Length=0.0372813 bus1=p1rdm3149.1.2 bus2=p1rlv1537.1.2 switch=n enabled=y phases=2 Linecode=1P_UG_AL_1/0_Brenau_0_416_0_2_2_2_2_2_2_2_2_2_2_2_2_2_2_2_2_2_2_2_2_2_2_2_2_2_2_2_2_2

New Line.l(r:p1rdm3149-p1rdt1432lv) Units=km Length=0.00976862 bus1=p1rdt1432lv.1.2 bus2=p1rdm3149.1.2 switch=n enabled=y phases=2 Linecode=1P_UG_AL_1/0_Brenau_0_416_0_2_2_2_2_2_2_2_2_2_2_2_2_2_2_2_2_2_2_2_2_2_2_2_2_2_2_2_2_2

New Line.l(r:p1rdm3150-p1rlv9653) Units=km Length=0.0286419 bus1=p1rdm3150.1.2 bus2=p1rlv9653.1.2 switch=n enabled=y phases=2 Linecode=1P_UG_AL_1/0_Brenau_0_416_0_2_2_2_2_2_2_2_2_2_2_2_2_2_2_2_2_2_2_2_2_2_2_2_2_2_2_2_2_2

New Line.l(r:p1rdm3150-p1rdt1432lv) Units=km Length=0.019532600000000004 bus1=p1rdt1432lv.1.2 bus2=p1rdm3150.1.2 switch=n enabled=y phases=2 Linecode=1P_UG_AL_1/0_Brenau_0_416_0_2_2_2_2_2_2_2_2_2_2_2_2_2_2_2_2_2_2_2_2_2_2_2_2_2_2_2_2_2

New Line.l(r:p1rdt1433lv-p1rlv4192) Units=km Length=0.0544368 bus1=p1rdt1433lv.1.2 bus2=p1rlv4192.1.2 switch=n enabled=y phases=2 Linecode=1P_OH_AL_4/0_Zuzara_0_416_0_2_2_2_2_2_2_2_2_2_2_2_2_2_2_2_2_2_2_2_2_2_2_2_2_2_2_2_2_2

New Line.l(r:p1rdm3151-p1rlv1538) Units=km Length=0.0657435 bus1=p1rdm3151.1.2 bus2=p1rlv1538.1.2 switch=n enabled=y phases=2 Linecode=1P_OH_AL_4/0_Zuzara_0_416_0_2_2_2_2_2_2_2_2_2_2_2_2_2_2_2_2_2_2_2_2_2_2_2_2_2_2_2_2_2

New Line.l(r:p1rdm3151-p1rdt1433lv) Units=km Length=0.010420800000000001 bus1=p1rdt1433lv.1.2 bus2=p1rdm3151.1.2 switch=n enabled=y phases=2 Linecode=1P_OH_AL_2/0_Rucina_0_416_0_2_2_2_2_2_2_2_2_2_2_2_2_2_2_2_2_2_2_2_2_2_2_2_2_2_2_2_2_2

New Line.l(r:p1rdt1434lv-p1rlv1539) Units=km Length=0.001 bus1=p1rdt1434lv.1.2 bus2=p1rlv1539.1.2 switch=n enabled=y phases=2 Linecode=1P_OH_AL_4_Periwinkle_0_416_0_2_2_2_2_2_2_2_2_2_2_2_2_2_2_2_2_2_2_2_2_2_2_2_2_2_2_2_2_2

New Line.l(r:p1rdt1437lv-p1rlv11292) Units=km Length=0.0569754 bus1=p1rdt1437lv.1.2 bus2=p1rlv11292.1.2 switch=n enabled=y phases=2 Linecode=1P_UG_AL_1/0_Brenau_0_416_0_2_2_2_2_2_2_2_2_2_2_2_2_2_2_2_2_2_2_2_2_2_2_2_2_2_2_2_2_2

New Line.l(r:p1rdm3160-p1rlv1544) Units=km Length=0.0578397 bus1=p1rdm3160.1.2 bus2=p1rlv1544.1.2 switch=n enabled=y phases=2 Linecode=1P_UG_AL_1/0_Brenau_0_416_0_2_2_2_2_2_2_2_2_2_2_2_2_2_2_2_2_2_2_2_2_2_2_2_2_2_2_2_2_2

New Line.l(r:p1rdm3164-p1rlv13310) Units=km Length=0.0901502 bus1=p1rdm3164.1.2 bus2=p1rlv13310.1.2 switch=n enabled=y phases=2 Linecode=1P_UG_AL_1/0_Brenau_0_416_0_2_2_2_2_2_2_2_2_2_2_2_2_2_2_2_2_2_2_2_2_2_2_2_2_2_2_2_2_2

New Line.l(r:p1rdm3160-p1rdm3164) Units=km Length=0.0193447 bus1=p1rdm3160.1.2 bus2=p1rdm3164.1.2 switch=n enabled=y phases=2 Linecode=1P_UG_AL_1/0_Brenau_0_416_0_2_2_2_2_2_2_2_2_2_2_2_2_2_2_2_2_2_2_2_2_2_2_2_2_2_2_2_2_2

New Line.l(r:p1rdm3160-p1rdt1437lv) Units=km Length=0.0290218 bus1=p1rdt1437lv.1.2 bus2=p1rdm3160.1.2 switch=n enabled=y phases=2 Linecode=1P_UG_AL_1/0_Brenau_0_416_0_2_2_2_2_2_2_2_2_2_2_2_2_2_2_2_2_2_2_2_2_2_2_2_2_2_2_2_2_2

New Line.l(r:p1rdm3161-p1rlv10883) Units=km Length=0.0501673 bus1=p1rdm3161.1.2 bus2=p1rlv10883.1.2 switch=n enabled=y phases=2 Linecode=1P_UG_AL_1/0_Brenau_0_416_0_2_2_2_2_2_2_2_2_2_2_2_2_2_2_2_2_2_2_2_2_2_2_2_2_2_2_2_2_2

New Line.l(r:p1rdm3163-p1rlv11425) Units=km Length=0.0981226 bus1=p1rdm3163.1.2 bus2=p1rlv11425.1.2 switch=n enabled=y phases=2 Linecode=1P_UG_AL_1/0_Brenau_0_416_0_2_2_2_2_2_2_2_2_2_2_2_2_2_2_2_2_2_2_2_2_2_2_2_2_2_2_2_2_2

New Line.l(r:p1rdm3161-p1rdm3163) Units=km Length=0.00967236 bus1=p1rdm3161.1.2 bus2=p1rdm3163.1.2 switch=n enabled=y phases=2 Linecode=1P_UG_AL_1/0_Brenau_0_416_0_2_2_2_2_2_2_2_2_2_2_2_2_2_2_2_2_2_2_2_2_2_2_2_2_2_2_2_2_2

New Line.l(r:p1rdm3161-p1rdt1437lv) Units=km Length=0.0290171 bus1=p1rdt1437lv.1.2 bus2=p1rdm3161.1.2 switch=n enabled=y phases=2 Linecode=1P_UG_AL_1/0_Brenau_0_416_0_2_2_2_2_2_2_2_2_2_2_2_2_2_2_2_2_2_2_2_2_2_2_2_2_2_2_2_2_2

New Line.l(r:p1rdt1526lv-p1rlv1652) Units=km Length=0.08133550000000002 bus1=p1rdt1526lv.1.2 bus2=p1rlv1652.1.2 switch=n enabled=y phases=2 Linecode=1P_OH_AL_4/0_Zuzara_0_416_0_2_2_2_2_2_2_2_2_2_2_2_2_2_2_2_2_2_2_2_2_2_2_2_2_2_2_2_2_2

New Line.l(r:p1rdt1530lv-p1rlv1659) Units=km Length=0.00650386 bus1=p1rdt1530lv.1.2 bus2=p1rlv1659.1.2 switch=n enabled=y phases=2 Linecode=1P_OH_AL_2/0_Rucina_0_416_0_2_2_2_2_2_2_2_2_2_2_2_2_2_2_2_2_2_2_2_2_2_2_2_2_2_2_2_2_2

New Line.l(r:p1rdt1530lv-p1rlv5166) Units=km Length=0.00650386 bus1=p1rdt1530lv.1.2 bus2=p1rlv5166.1.2 switch=n enabled=y phases=2 Linecode=1P_OH_AL_2/0_Rucina_0_416_0_2_2_2_2_2_2_2_2_2_2_2_2_2_2_2_2_2_2_2_2_2_2_2_2_2_2_2_2_2

New Line.l(r:p1rdt1636lv-p1rlv1784) Units=km Length=0.001 bus1=p1rdt1636lv.1.2 bus2=p1rlv1784.1.2 switch=n enabled=y phases=2 Linecode=1P_OH_AL_4_Periwinkle_0_416_0_2_2_2_2_2_2_2_2_2_2_2_2_2_2_2_2_2_2_2_2_2_2_2_2_2_2_2_2_2

New Line.l(r:p1rdt1637lv-p1rlv1785) Units=km Length=0.001 bus1=p1rdt1637lv.1.2 bus2=p1rlv1785.1.2 switch=n enabled=y phases=2 Linecode=1P_UG_AL_1/0_Brenau_0_416_0_2_2_2_2_2_2_2_2_2_2_2_2_2_2_2_2_2_2_2_2_2_2_2_2_2_2_2_2_2

New Line.l(r:p1rdt1639lv-p1rlv1787) Units=km Length=0.0262011 bus1=p1rdt1639lv.1.2 bus2=p1rlv1787.1.2 switch=n enabled=y phases=2 Linecode=1P_OH_AL_2/0_Rucina_0_416_0_2_2_2_2_2_2_2_2_2_2_2_2_2_2_2_2_2_2_2_2_2_2_2_2_2_2_2_2_2

New Line.l(r:p1rdt1639lv-p1rlv3927) Units=km Length=0.0262011 bus1=p1rdt1639lv.1.2 bus2=p1rlv3927.1.2 switch=n enabled=y phases=2 Linecode=1P_OH_AL_2/0_Rucina_0_416_0_2_2_2_2_2_2_2_2_2_2_2_2_2_2_2_2_2_2_2_2_2_2_2_2_2_2_2_2_2

New Line.l(r:p1rdt1640lv-p1rlv1788) Units=km Length=0.152007 bus1=p1rdt1640lv.1.2 bus2=p1rlv1788.1.2 switch=n enabled=y phases=2 Linecode=1P_OH_AL_4/0_Zuzara_0_416_0_2_2_2_2_2_2_2_2_2_2_2_2_2_2_2_2_2_2_2_2_2_2_2_2_2_2_2_2_2

New Line.l(r:p1rdt1640lv-p1rlv8579) Units=km Length=0.046330300000000005 bus1=p1rdt1640lv.1.2 bus2=p1rlv8579.1.2 switch=n enabled=y phases=2 Linecode=1P_OH_AL_4/0_Zuzara_0_416_0_2_2_2_2_2_2_2_2_2_2_2_2_2_2_2_2_2_2_2_2_2_2_2_2_2_2_2_2_2

New Line.l(r:p1rdt1751lv-p1rlv1923) Units=km Length=0.0355287 bus1=p1rdt1751lv.1.2 bus2=p1rlv1923.1.2 switch=n enabled=y phases=2 Linecode=1P_OH_AL_4/0_Zuzara_0_416_0_2_2_2_2_2_2_2_2_2_2_2_2_2_2_2_2_2_2_2_2_2_2_2_2_2_2_2_2_2

New Line.l(r:p1rdt1751lv-p1rlv4619) Units=km Length=0.033095 bus1=p1rdt1751lv.1.2 bus2=p1rlv4619.1.2 switch=n enabled=y phases=2 Linecode=1P_OH_AL_4/0_Zuzara_0_416_0_2_2_2_2_2_2_2_2_2_2_2_2_2_2_2_2_2_2_2_2_2_2_2_2_2_2_2_2_2

New Line.l(r:p1rdt1751lv-p1rlv7935) Units=km Length=0.0032009300000000003 bus1=p1rdt1751lv.1.2 bus2=p1rlv7935.1.2 switch=n enabled=y phases=2 Linecode=1P_OH_AL_4_Periwinkle_0_416_0_2_2_2_2_2_2_2_2_2_2_2_2_2_2_2_2_2_2_2_2_2_2_2_2_2_2_2_2_2

New Line.l(r:p1rdt1753lv-p1rlv1925) Units=km Length=0.0271602 bus1=p1rdt1753lv.1.2 bus2=p1rlv1925.1.2 switch=n enabled=y phases=2 Linecode=1P_OH_AL_4/0_Zuzara_0_416_0_2_2_2_2_2_2_2_2_2_2_2_2_2_2_2_2_2_2_2_2_2_2_2_2_2_2_2_2_2

New Line.l(r:p1rdt1754lv-p1rlv1926) Units=km Length=0.0650815 bus1=p1rdt1754lv.1.2 bus2=p1rlv1926.1.2 switch=n enabled=y phases=2 Linecode=1P_OH_AL_4/0_Zuzara_0_416_0_2_2_2_2_2_2_2_2_2_2_2_2_2_2_2_2_2_2_2_2_2_2_2_2_2_2_2_2_2

New Line.l(r:p1rdm3821-p1rlv4922) Units=km Length=0.0615065 bus1=p1rdm3821.1.2 bus2=p1rlv4922.1.2 switch=n enabled=y phases=2 Linecode=1P_OH_AL_4/0_Zuzara_0_416_0_2_2_2_2_2_2_2_2_2_2_2_2_2_2_2_2_2_2_2_2_2_2_2_2_2_2_2_2_2

New Line.l(r:p1rdm3821-p1rdt1754lv) Units=km Length=0.0192054 bus1=p1rdt1754lv.1.2 bus2=p1rdm3821.1.2 switch=n enabled=y phases=2 Linecode=1P_OH_AL_2/0_Rucina_0_416_0_2_2_2_2_2_2_2_2_2_2_2_2_2_2_2_2_2_2_2_2_2_2_2_2_2_2_2_2_2

New Line.l(r:p1rdm3823-p1rlv2740) Units=km Length=0.146096 bus1=p1rdm3823.1.2 bus2=p1rlv2740.1.2 switch=n enabled=y phases=2 Linecode=1P_OH_AL_4/0_Zuzara_0_416_0_2_2_2_2_2_2_2_2_2_2_2_2_2_2_2_2_2_2_2_2_2_2_2_2_2_2_2_2_2

New Line.l(r:p1rdm3825-p1rlv8451) Units=km Length=0.0344651 bus1=p1rdm3825.1.2 bus2=p1rlv8451.1.2 switch=n enabled=y phases=2 Linecode=1P_OH_AL_4/0_Zuzara_0_416_0_2_2_2_2_2_2_2_2_2_2_2_2_2_2_2_2_2_2_2_2_2_2_2_2_2_2_2_2_2

New Line.l(r:p1rdm3823-p1rdm3825) Units=km Length=0.0339165 bus1=p1rdm3823.1.2 bus2=p1rdm3825.1.2 switch=n enabled=y phases=2 Linecode=1P_OH_AL_4/0_Zuzara_0_416_0_2_2_2_2_2_2_2_2_2_2_2_2_2_2_2_2_2_2_2_2_2_2_2_2_2_2_2_2_2

New Line.l(r:p1rdm3823-p1rdt1755lv) Units=km Length=0.0169694 bus1=p1rdt1755lv.1.2 bus2=p1rdm3823.1.2 switch=n enabled=y phases=2 Linecode=1P_OH_AL_2/0_Rucina_0_416_0_2_2_2_2_2_2_2_2_2_2_2_2_2_2_2_2_2_2_2_2_2_2_2_2_2_2_2_2_2

New Line.l(r:p1rdm3824-p1rlv7816) Units=km Length=0.0327034 bus1=p1rdm3824.1.2 bus2=p1rlv7816.1.2 switch=n enabled=y phases=2 Linecode=1P_OH_AL_4/0_Zuzara_0_416_0_2_2_2_2_2_2_2_2_2_2_2_2_2_2_2_2_2_2_2_2_2_2_2_2_2_2_2_2_2

New Line.l(r:p1rdm3822-p1rlv1927) Units=km Length=0.0144438 bus1=p1rdm3822.1.2 bus2=p1rlv1927.1.2 switch=n enabled=y phases=2 Linecode=1P_OH_AL_2/0_Rucina_0_416_0_2_2_2_2_2_2_2_2_2_2_2_2_2_2_2_2_2_2_2_2_2_2_2_2_2_2_2_2_2

New Line.l(r:p1rdm3822-p1rdm3824) Units=km Length=0.0339301 bus1=p1rdm3824.1.2 bus2=p1rdm3822.1.2 switch=n enabled=y phases=2 Linecode=1P_OH_AL_4/0_Zuzara_0_416_0_2_2_2_2_2_2_2_2_2_2_2_2_2_2_2_2_2_2_2_2_2_2_2_2_2_2_2_2_2

New Line.l(r:p1rdm3824-p1rdt1755lv) Units=km Length=0.0169606 bus1=p1rdt1755lv.1.2 bus2=p1rdm3824.1.2 switch=n enabled=y phases=2 Linecode=1P_OH_AL_2/0_Rucina_0_416_0_2_2_2_2_2_2_2_2_2_2_2_2_2_2_2_2_2_2_2_2_2_2_2_2_2_2_2_2_2

New Line.l(r:p1rdt1756lv-p1rlv1929) Units=km Length=0.0527645 bus1=p1rdt1756lv.1.2 bus2=p1rlv1929.1.2 switch=n enabled=y phases=2 Linecode=1P_OH_AL_4/0_Zuzara_0_416_0_2_2_2_2_2_2_2_2_2_2_2_2_2_2_2_2_2_2_2_2_2_2_2_2_2_2_2_2_2

New Line.l(r:p1rdt1865lv-p1rlv2057) Units=km Length=0.0336971 bus1=p1rdt1865lv.1.2 bus2=p1rlv2057.1.2 switch=n enabled=y phases=2 Linecode=1P_OH_AL_4/0_Zuzara_0_416_0_2_2_2_2_2_2_2_2_2_2_2_2_2_2_2_2_2_2_2_2_2_2_2_2_2_2_2_2_2

New Line.l(r:p1rdt1865lv-p1rlv2738) Units=km Length=0.024783800000000005 bus1=p1rdt1865lv.1.2 bus2=p1rlv2738.1.2 switch=n enabled=y phases=2 Linecode=1P_OH_AL_2/0_Rucina_0_416_0_2_2_2_2_2_2_2_2_2_2_2_2_2_2_2_2_2_2_2_2_2_2_2_2_2_2_2_2_2

New Line.l(r:p1rdt1865lv-p1rlv8857) Units=km Length=0.0126541 bus1=p1rdt1865lv.1.2 bus2=p1rlv8857.1.2 switch=n enabled=y phases=2 Linecode=1P_OH_AL_2/0_Rucina_0_416_0_2_2_2_2_2_2_2_2_2_2_2_2_2_2_2_2_2_2_2_2_2_2_2_2_2_2_2_2_2

New Line.l(r:p1rdt1865lv-p1rlv11418) Units=km Length=0.0429983 bus1=p1rdt1865lv.1.2 bus2=p1rlv11418.1.2 switch=n enabled=y phases=2 Linecode=1P_OH_AL_4/0_Zuzara_0_416_0_2_2_2_2_2_2_2_2_2_2_2_2_2_2_2_2_2_2_2_2_2_2_2_2_2_2_2_2_2

New Line.l(r:p1rdt1972lv-p1rlv2190) Units=km Length=0.110425 bus1=p1rdt1972lv.1.2 bus2=p1rlv2190.1.2 switch=n enabled=y phases=2 Linecode=1P_OH_AL_4/0_Zuzara_0_416_0_2_2_2_2_2_2_2_2_2_2_2_2_2_2_2_2_2_2_2_2_2_2_2_2_2_2_2_2_2

New Line.l(r:p1rdm4268-p1rlv3532) Units=km Length=0.0739434 bus1=p1rdm4268.1.2 bus2=p1rlv3532.1.2 switch=n enabled=y phases=2 Linecode=1P_OH_AL_4/0_Zuzara_0_416_0_2_2_2_2_2_2_2_2_2_2_2_2_2_2_2_2_2_2_2_2_2_2_2_2_2_2_2_2_2

New Line.l(r:p1rdm4268-p1rdt1972lv) Units=km Length=0.0196988 bus1=p1rdt1972lv.1.2 bus2=p1rdm4268.1.2 switch=n enabled=y phases=2 Linecode=1P_OH_AL_2/0_Rucina_0_416_0_2_2_2_2_2_2_2_2_2_2_2_2_2_2_2_2_2_2_2_2_2_2_2_2_2_2_2_2_2

New Line.l(r:p1rdt2101lv-p1rlv2342) Units=km Length=0.0396021 bus1=p1rdt2101lv.1.2 bus2=p1rlv2342.1.2 switch=n enabled=y phases=2 Linecode=1P_OH_AL_4/0_Zuzara_0_416_0_2_2_2_2_2_2_2_2_2_2_2_2_2_2_2_2_2_2_2_2_2_2_2_2_2_2_2_2_2

New Line.l(r:p1rdt2101lv-p1rlv12930) Units=km Length=0.00713376 bus1=p1rdt2101lv.1.2 bus2=p1rlv12930.1.2 switch=n enabled=y phases=2 Linecode=1P_OH_AL_2/0_Rucina_0_416_0_2_2_2_2_2_2_2_2_2_2_2_2_2_2_2_2_2_2_2_2_2_2_2_2_2_2_2_2_2

New Line.l(r:p1rdt2101lv-p1rlv13824) Units=km Length=0.0333146 bus1=p1rdt2101lv.1.2 bus2=p1rlv13824.1.2 switch=n enabled=y phases=2 Linecode=1P_OH_AL_4/0_Zuzara_0_416_0_2_2_2_2_2_2_2_2_2_2_2_2_2_2_2_2_2_2_2_2_2_2_2_2_2_2_2_2_2

New Line.l(r:p1rdt2102lv-p1rlv12412) Units=km Length=0.060052 bus1=p1rdt2102lv.1.2 bus2=p1rlv12412.1.2 switch=n enabled=y phases=2 Linecode=1P_OH_AL_4/0_Zuzara_0_416_0_2_2_2_2_2_2_2_2_2_2_2_2_2_2_2_2_2_2_2_2_2_2_2_2_2_2_2_2_2

New Line.l(r:p1rdm4516-p1rlv2343) Units=km Length=0.0721644 bus1=p1rdm4516.1.2 bus2=p1rlv2343.1.2 switch=n enabled=y phases=2 Linecode=1P_OH_AL_4/0_Zuzara_0_416_0_2_2_2_2_2_2_2_2_2_2_2_2_2_2_2_2_2_2_2_2_2_2_2_2_2_2_2_2_2

New Line.l(r:p1rdm4516-p1rdt2102lv) Units=km Length=0.0193957 bus1=p1rdt2102lv.1.2 bus2=p1rdm4516.1.2 switch=n enabled=y phases=2 Linecode=1P_OH_AL_2/0_Rucina_0_416_0_2_2_2_2_2_2_2_2_2_2_2_2_2_2_2_2_2_2_2_2_2_2_2_2_2_2_2_2_2

New Line.l(r:p1rdt2103lv-p1rlv2344) Units=km Length=0.0777474 bus1=p1rdt2103lv.1.2 bus2=p1rlv2344.1.2 switch=n enabled=y phases=2 Linecode=1P_OH_AL_4/0_Zuzara_0_416_0_2_2_2_2_2_2_2_2_2_2_2_2_2_2_2_2_2_2_2_2_2_2_2_2_2_2_2_2_2

New Line.l(r:p1rdm4519-p1rlv5711) Units=km Length=0.064296 bus1=p1rdm4519.1.2 bus2=p1rlv5711.1.2 switch=n enabled=y phases=2 Linecode=1P_OH_AL_4/0_Zuzara_0_416_0_2_2_2_2_2_2_2_2_2_2_2_2_2_2_2_2_2_2_2_2_2_2_2_2_2_2_2_2_2

New Line.l(r:p1rdm4519-p1rdt2103lv) Units=km Length=0.0193306 bus1=p1rdt2103lv.1.2 bus2=p1rdm4519.1.2 switch=n enabled=y phases=2 Linecode=1P_OH_AL_2/0_Rucina_0_416_0_2_2_2_2_2_2_2_2_2_2_2_2_2_2_2_2_2_2_2_2_2_2_2_2_2_2_2_2_2

New Line.l(r:p1rdt2211lv-p1rlv2472) Units=km Length=0.018808000000000002 bus1=p1rdt2211lv.1.2 bus2=p1rlv2472.1.2 switch=n enabled=y phases=2 Linecode=1P_OH_AL_2/0_Rucina_0_416_0_2_2_2_2_2_2_2_2_2_2_2_2_2_2_2_2_2_2_2_2_2_2_2_2_2_2_2_2_2
