New Load.load_p1rlv47 conn=wye bus1=p1rlv47.1.2 kV=0.2080002494301389 Vminpu=0.8 Vmaxpu=1.2 model=1 kW=5.67006 kvar=1.1513547893144422 Phases=2

New Load.load_p1rlv48 conn=wye bus1=p1rlv48.1.2 kV=0.2080002494301389 Vminpu=0.8 Vmaxpu=1.2 model=1 kW=8.480080000000001 kvar=1.7219536868692071 Phases=2

New Load.load_p1rlv182 conn=wye bus1=p1rlv182.1.2 kV=0.2080002494301389 Vminpu=0.8 Vmaxpu=1.2 model=1 kW=7.72008 kvar=1.5716639788550044 Phases=2

New Load.load_p1rlv183 conn=wye bus1=p1rlv183.1.2 kV=0.2080002494301389 Vminpu=0.8 Vmaxpu=1.2 model=1 kW=5.02005 kvar=1.0193646293157332 Phases=2

New Load.load_p1rlv184 conn=wye bus1=p1rlv184.1.2 kV=0.2080002494301389 Vminpu=0.8 Vmaxpu=1.2 model=1 kW=1.3200100000000001 kvar=0.27010450252693985 Phases=2

New Load.load_p1rlv321 conn=wye bus1=p1rlv321.1.2 kV=0.2080002494301389 Vminpu=0.8 Vmaxpu=1.2 model=1 kW=4.80005 kvar=0.9797035253585847 Phases=2

New Load.load_p1rlv322 conn=wye bus1=p1rlv322.1.2 kV=0.2080002494301389 Vminpu=0.8 Vmaxpu=1.2 model=1 kW=6.62007 kvar=1.3407947246159133 Phases=2

New Load.load_p1rlv323 conn=wye bus1=p1rlv323.1.2 kV=0.2080002494301389 Vminpu=0.8 Vmaxpu=1.2 model=1 kW=1.3000100000000003 kvar=0.43005421137611194 Phases=2

New Load.load_p1rlv324 conn=wye bus1=p1rlv324.1.2 kV=0.2080002494301389 Vminpu=0.8 Vmaxpu=1.2 model=1 kW=6.85007 kvar=1.3909660394491736 Phases=2

New Load.load_p1rlv326 conn=wye bus1=p1rlv326.1.2 kV=0.2080002494301389 Vminpu=0.8 Vmaxpu=1.2 model=1 kW=1.82002 kvar=0.6001469603309149 Phases=2

New Load.load_p1rlv445 conn=wye bus1=p1rlv445.1.2 kV=0.2080002494301389 Vminpu=0.8 Vmaxpu=1.2 model=1 kW=2.3500200000000007 kvar=0.7699095981949263 Phases=2

New Load.load_p1rlv446 conn=wye bus1=p1rlv446.1.2 kV=0.2080002494301389 Vminpu=0.8 Vmaxpu=1.2 model=1 kW=6.17006 kvar=1.249652027631681 Phases=2

New Load.load_p1rlv447 conn=wye bus1=p1rlv447.1.2 kV=0.2080002494301389 Vminpu=0.8 Vmaxpu=1.2 model=1 kW=6.09006 kvar=1.2398223763310365 Phases=2

New Load.load_p1rlv448 conn=wye bus1=p1rlv448.1.2 kV=0.2080002494301389 Vminpu=0.8 Vmaxpu=1.2 model=1 kW=6.94007 kvar=1.4092413189062343 Phases=2

New Load.load_p1rlv449 conn=wye bus1=p1rlv449.1.2 kV=0.2080002494301389 Vminpu=0.8 Vmaxpu=1.2 model=1 kW=2.62003 kvar=0.8602321308203738 Phases=2

New Load.load_p1rlv570 conn=wye bus1=p1rlv570.1.2 kV=0.2080002494301389 Vminpu=0.8 Vmaxpu=1.2 model=1 kW=6.140060000000001 kvar=1.2500014416960006 Phases=2

New Load.load_p1rlv571 conn=wye bus1=p1rlv571.1.2 kV=0.2080002494301389 Vminpu=0.8 Vmaxpu=1.2 model=1 kW=11.670100000000001 kvar=2.3697148754648936 Phases=2

New Load.load_p1rlv573 conn=wye bus1=p1rlv573.1.2 kV=0.2080002494301389 Vminpu=0.8 Vmaxpu=1.2 model=1 kW=5.72006 kvar=1.1585113559957074 Phases=2

New Load.load_p1rlv575 conn=wye bus1=p1rlv575.1.2 kV=0.2080002494301389 Vminpu=0.8 Vmaxpu=1.2 model=1 kW=5.06005 kvar=1.030131593999708 Phases=2

New Load.load_p1rlv719 conn=wye bus1=p1rlv719.1.2 kV=0.2080002494301389 Vminpu=0.8 Vmaxpu=1.2 model=1 kW=5.850060000000001 kvar=1.19096286257921 Phases=2

New Load.load_p1rlv720 conn=wye bus1=p1rlv720.1.2 kV=0.2080002494301389 Vminpu=0.8 Vmaxpu=1.2 model=1 kW=0.870009 kvar=0.28995194066354263 Phases=2

New Load.load_p1rlv721 conn=wye bus1=p1rlv721.1.2 kV=0.2080002494301389 Vminpu=0.8 Vmaxpu=1.2 model=1 kW=1.67002 kvar=0.550093354742464 Phases=2

New Load.load_p1rlv861 conn=wye bus1=p1rlv861.1.2 kV=0.2080002494301389 Vminpu=0.8 Vmaxpu=1.2 model=1 kW=5.640060000000001 kvar=1.151151897424806 Phases=2

New Load.load_p1rlv863 conn=wye bus1=p1rlv863.1.2 kV=0.2080002494301389 Vminpu=0.8 Vmaxpu=1.2 model=1 kW=5.090050000000001 kvar=1.0309123903570856 Phases=2

New Load.load_p1rlv1008 conn=wye bus1=p1rlv1008.1.2 kV=0.2080002494301389 Vminpu=0.8 Vmaxpu=1.2 model=1 kW=4.55005 kvar=0.9191546616517607 Phases=2

New Load.load_p1rlv1009 conn=wye bus1=p1rlv1009.1.2 kV=0.2080002494301389 Vminpu=0.8 Vmaxpu=1.2 model=1 kW=3.51004 kvar=1.1499533987149548 Phases=2

New Load.load_p1rlv1014 conn=wye bus1=p1rlv1014.1.2.3 kV=0.48 Vminpu=0.8 Vmaxpu=1.2 model=1 kW=86.6909 kvar=28.49392089365031 Phases=3

New Load.load_p1rlv1016 conn=wye bus1=p1rlv1016.1.2 kV=0.2080002494301389 Vminpu=0.8 Vmaxpu=1.2 model=1 kW=8.00008 kvar=1.6202948096478251 Phases=2

New Load.load_p1rlv1125 conn=wye bus1=p1rlv1125.1.2 kV=0.2080002494301389 Vminpu=0.8 Vmaxpu=1.2 model=1 kW=6.15006 kvar=1.2488229464187643 Phases=2

New Load.load_p1rlv1126 conn=wye bus1=p1rlv1126.1.2 kV=0.2080002494301389 Vminpu=0.8 Vmaxpu=1.2 model=1 kW=6.100060000000001 kvar=1.2386700133870643 Phases=2

New Load.load_p1rlv1127 conn=wye bus1=p1rlv1127.1.2 kV=0.2080002494301389 Vminpu=0.8 Vmaxpu=1.2 model=1 kW=6.68007 kvar=1.359937383450683 Phases=2

New Load.load_p1rlv1243 conn=wye bus1=p1rlv1243.1.2 kV=0.2080002494301389 Vminpu=0.8 Vmaxpu=1.2 model=1 kW=6.11006 kvar=1.2407005999934042 Phases=2

New Load.load_p1rlv1401 conn=wye bus1=p1rlv1401.1.2 kV=0.2080002494301389 Vminpu=0.8 Vmaxpu=1.2 model=1 kW=2.29002 kvar=0.7502524991524943 Phases=2

New Load.load_p1rlv1404 conn=wye bus1=p1rlv1404.1.2 kV=0.2080002494301389 Vminpu=0.8 Vmaxpu=1.2 model=1 kW=6.03006 kvar=1.2212971520116003 Phases=2

New Load.load_p1rlv1405 conn=wye bus1=p1rlv1405.1.2 kV=0.2080002494301389 Vminpu=0.8 Vmaxpu=1.2 model=1 kW=7.52008 kvar=1.5309477173951491 Phases=2

New Load.load_p1rlv1406 conn=wye bus1=p1rlv1406.1.2.3 kV=0.48 Vminpu=0.8 Vmaxpu=1.2 model=1 kW=32.2103 kvar=6.540580376619469 Phases=3

New Load.load_p1rlv1529 conn=wye bus1=p1rlv1529.1.2 kV=0.2080002494301389 Vminpu=0.8 Vmaxpu=1.2 model=1 kW=1.46001 kvar=0.47988208040219194 Phases=2

New Load.load_p1rlv1535 conn=wye bus1=p1rlv1535.1.2 kV=0.2080002494301389 Vminpu=0.8 Vmaxpu=1.2 model=1 kW=6.17006 kvar=1.249652027631681 Phases=2

New Load.load_p1rlv1536 conn=wye bus1=p1rlv1536.1.2 kV=0.2080002494301389 Vminpu=0.8 Vmaxpu=1.2 model=1 kW=5.14005 kvar=1.0410391316499712 Phases=2

New Load.load_p1rlv1537 conn=wye bus1=p1rlv1537.1.2 kV=0.2080002494301389 Vminpu=0.8 Vmaxpu=1.2 model=1 kW=5.41005 kvar=1.101385051554455 Phases=2

New Load.load_p1rlv1538 conn=wye bus1=p1rlv1538.1.2 kV=0.2080002494301389 Vminpu=0.8 Vmaxpu=1.2 model=1 kW=5.95006 kvar=1.2113209933091376 Phases=2

New Load.load_p1rlv1539 conn=wye bus1=p1rlv1539.1.2 kV=0.2080002494301389 Vminpu=0.8 Vmaxpu=1.2 model=1 kW=6.060060000000001 kvar=1.2305476669617041 Phases=2

New Load.load_p1rlv1544 conn=wye bus1=p1rlv1544.1.2 kV=0.2080002494301389 Vminpu=0.8 Vmaxpu=1.2 model=1 kW=0.9900100000000001 kvar=0.32010019291080516 Phases=2

New Load.load_p1rlv1652 conn=wye bus1=p1rlv1652.1.2 kV=0.2080002494301389 Vminpu=0.8 Vmaxpu=1.2 model=1 kW=5.770060000000001 kvar=1.1686380972885935 Phases=2

New Load.load_p1rlv1655 conn=wye bus1=p1rlv1655.1.2 kV=0.2080002494301389 Vminpu=0.8 Vmaxpu=1.2 model=1 kW=5.86006 kvar=1.1899359348349032 Phases=2

New Load.load_p1rlv1659 conn=wye bus1=p1rlv1659.1.2 kV=0.2080002494301389 Vminpu=0.8 Vmaxpu=1.2 model=1 kW=2.98003 kvar=0.9794884939561677 Phases=2

New Load.load_p1rlv1784 conn=wye bus1=p1rlv1784.1.2 kV=0.2080002494301389 Vminpu=0.8 Vmaxpu=1.2 model=1 kW=1.13001 kvar=0.2300489130612563 Phases=2

New Load.load_p1rlv1785 conn=wye bus1=p1rlv1785.1.2 kV=0.2080002494301389 Vminpu=0.8 Vmaxpu=1.2 model=1 kW=4.44004 kvar=0.8992627282013091 Phases=2

New Load.load_p1rlv1787 conn=wye bus1=p1rlv1787.1.2 kV=0.2080002494301389 Vminpu=0.8 Vmaxpu=1.2 model=1 kW=5.51006 kvar=1.1188654036130017 Phases=2

New Load.load_p1rlv1788 conn=wye bus1=p1rlv1788.1.2 kV=0.2080002494301389 Vminpu=0.8 Vmaxpu=1.2 model=1 kW=6.28006 kvar=1.2686336247849492 Phases=2

New Load.load_p1rlv1923 conn=wye bus1=p1rlv1923.1.2 kV=0.2080002494301389 Vminpu=0.8 Vmaxpu=1.2 model=1 kW=5.73006 kvar=1.1605367042542845 Phases=2

New Load.load_p1rlv1925 conn=wye bus1=p1rlv1925.1.2 kV=0.2080002494301389 Vminpu=0.8 Vmaxpu=1.2 model=1 kW=8.25008 kvar=1.670928516112255 Phases=2

New Load.load_p1rlv1926 conn=wye bus1=p1rlv1926.1.2 kV=0.2080002494301389 Vminpu=0.8 Vmaxpu=1.2 model=1 kW=5.53006 kvar=1.1200297390827405 Phases=2

New Load.load_p1rlv1927 conn=wye bus1=p1rlv1927.1.2 kV=0.2080002494301389 Vminpu=0.8 Vmaxpu=1.2 model=1 kW=1.25001 kvar=0.40997059545635767 Phases=2

New Load.load_p1rlv1929 conn=wye bus1=p1rlv1929.1.2 kV=0.2080002494301389 Vminpu=0.8 Vmaxpu=1.2 model=1 kW=6.20006 kvar=1.2589758794504644 Phases=2

New Load.load_p1rlv2057 conn=wye bus1=p1rlv2057.1.2 kV=0.2080002494301389 Vminpu=0.8 Vmaxpu=1.2 model=1 kW=6.38006 kvar=1.288834604151149 Phases=2

New Load.load_p1rlv2190 conn=wye bus1=p1rlv2190.1.2 kV=0.2080002494301389 Vminpu=0.8 Vmaxpu=1.2 model=1 kW=4.81005 kvar=0.9792362671748885 Phases=2

New Load.load_p1rlv2342 conn=wye bus1=p1rlv2342.1.2 kV=0.2080002494301389 Vminpu=0.8 Vmaxpu=1.2 model=1 kW=1.43001 kvar=0.4700215572468261 Phases=2

New Load.load_p1rlv2343 conn=wye bus1=p1rlv2343.1.2 kV=0.2080002494301389 Vminpu=0.8 Vmaxpu=1.2 model=1 kW=5.770060000000001 kvar=1.1686380972885935 Phases=2

New Load.load_p1rlv2344 conn=wye bus1=p1rlv2344.1.2 kV=0.2080002494301389 Vminpu=0.8 Vmaxpu=1.2 model=1 kW=5.47005 kvar=1.110741026601035 Phases=2

New Load.load_p1rlv2472 conn=wye bus1=p1rlv2472.1.2 kV=0.2080002494301389 Vminpu=0.8 Vmaxpu=1.2 model=1 kW=0.700007 kvar=0.23008117441394046 Phases=2

New Load.load_p1rlv2473 conn=wye bus1=p1rlv2473.1.2 kV=0.2080002494301389 Vminpu=0.8 Vmaxpu=1.2 model=1 kW=6.76007 kvar=1.3691496002359942 Phases=2

New Load.load_p1rlv2475 conn=wye bus1=p1rlv2475.1.2 kV=0.2080002494301389 Vminpu=0.8 Vmaxpu=1.2 model=1 kW=7.77008 kvar=1.5818430442199682 Phases=2

New Load.load_p1rlv2476 conn=wye bus1=p1rlv2476.1.2 kV=0.2080002494301389 Vminpu=0.8 Vmaxpu=1.2 model=1 kW=4.96005 kvar=1.0097734632697801 Phases=2

New Load.load_p1rlv2608 conn=wye bus1=p1rlv2608.1.2 kV=0.2080002494301389 Vminpu=0.8 Vmaxpu=1.2 model=1 kW=2.47002 kvar=0.8101019753354873 Phases=2

New Load.load_p1rlv2609 conn=wye bus1=p1rlv2609.1.2 kV=0.2080002494301389 Vminpu=0.8 Vmaxpu=1.2 model=1 kW=0.340003 kvar=0.110055280977222 Phases=2

New Load.load_p1rlv2610 conn=wye bus1=p1rlv2610.1.2 kV=0.2080002494301389 Vminpu=0.8 Vmaxpu=1.2 model=1 kW=5.63006 kvar=1.1402832216685126 Phases=2

New Load.load_p1rlv2612 conn=wye bus1=p1rlv2612.1.2 kV=0.2080002494301389 Vminpu=0.8 Vmaxpu=1.2 model=1 kW=4.86005 kvar=0.9894153325398525 Phases=2

New Load.load_p1rlv2738 conn=wye bus1=p1rlv2738.1.2 kV=0.2080002494301389 Vminpu=0.8 Vmaxpu=1.2 model=1 kW=2.5300300000000004 kvar=0.5097594376956769 Phases=2

New Load.load_p1rlv2739 conn=wye bus1=p1rlv2739.1.2 kV=0.2080002494301389 Vminpu=0.8 Vmaxpu=1.2 model=1 kW=4.09004 kvar=0.8305180443395029 Phases=2

New Load.load_p1rlv2740 conn=wye bus1=p1rlv2740.1.2 kV=0.2080002494301389 Vminpu=0.8 Vmaxpu=1.2 model=1 kW=0.350003 kvar=0.12005643219886704 Phases=2

New Load.load_p1rlv2741 conn=wye bus1=p1rlv2741.1.2 kV=0.2080002494301389 Vminpu=0.8 Vmaxpu=1.2 model=1 kW=4.97005 kvar=1.009211696284033 Phases=2

New Load.load_p1rlv2742 conn=wye bus1=p1rlv2742.1.2 kV=0.2080002494301389 Vminpu=0.8 Vmaxpu=1.2 model=1 kW=3.7100400000000002 kvar=1.2194311775777895 Phases=2

New Load.load_p1rlv2745 conn=wye bus1=p1rlv2745.1.2 kV=0.2080002494301389 Vminpu=0.8 Vmaxpu=1.2 model=1 kW=6.270060000000001 kvar=1.269905510217453 Phases=2

New Load.load_p1rlv2746 conn=wye bus1=p1rlv2746.1.2 kV=0.2080002494301389 Vminpu=0.8 Vmaxpu=1.2 model=1 kW=7.00007 kvar=1.4214248385442743 Phases=2

New Load.load_p1rlv2750 conn=wye bus1=p1rlv2750.1.2 kV=0.2080002494301389 Vminpu=0.8 Vmaxpu=1.2 model=1 kW=2.49002 kvar=0.8201958390772747 Phases=2

New Load.load_p1rlv2883 conn=wye bus1=p1rlv2883.1.2 kV=0.2080002494301389 Vminpu=0.8 Vmaxpu=1.2 model=1 kW=5.460050000000001 kvar=1.7907536337481187 Phases=2

New Load.load_p1rlv2884 conn=wye bus1=p1rlv2884.1.2 kV=0.2080002494301389 Vminpu=0.8 Vmaxpu=1.2 model=1 kW=6.04006 kvar=1.2296433109660727 Phases=2

New Load.load_p1rlv2885 conn=wye bus1=p1rlv2885.1.2 kV=0.2080002494301389 Vminpu=0.8 Vmaxpu=1.2 model=1 kW=3.89004 kvar=0.789906312212702 Phases=2

New Load.load_p1rlv2886 conn=wye bus1=p1rlv2886.1.2 kV=0.2080002494301389 Vminpu=0.8 Vmaxpu=1.2 model=1 kW=6.90007 kvar=1.4011189724808741 Phases=2

New Load.load_p1rlv2994 conn=wye bus1=p1rlv2994.1.2.3 kV=0.48 Vminpu=0.8 Vmaxpu=1.2 model=1 kW=21.070199999999996 kvar=6.917960116033573 Phases=3

New Load.load_p1rlv2995 conn=wye bus1=p1rlv2995.1.2 kV=0.2080002494301389 Vminpu=0.8 Vmaxpu=1.2 model=1 kW=3.6900400000000007 kvar=0.7492945800859013 Phases=2

New Load.load_p1rlv2996 conn=wye bus1=p1rlv2996.1.2 kV=0.2080002494301389 Vminpu=0.8 Vmaxpu=1.2 model=1 kW=4.75005 kvar=0.969498386606295 Phases=2

New Load.load_p1rlv2997 conn=wye bus1=p1rlv2997.1.2 kV=0.2080002494301389 Vminpu=0.8 Vmaxpu=1.2 model=1 kW=9.00009 kvar=2.961379033477071 Phases=2

New Load.load_p1rlv3122 conn=wye bus1=p1rlv3122.1.2 kV=0.2080002494301389 Vminpu=0.8 Vmaxpu=1.2 model=1 kW=8.10008 kvar=1.6490248756287298 Phases=2

New Load.load_p1rlv3123 conn=wye bus1=p1rlv3123.1.2 kV=0.2080002494301389 Vminpu=0.8 Vmaxpu=1.2 model=1 kW=6.89007 kvar=1.399088385874534 Phases=2

New Load.load_p1rlv3125 conn=wye bus1=p1rlv3125.1.2.3 kV=0.48 Vminpu=0.8 Vmaxpu=1.2 model=1 kW=34.490300000000005 kvar=7.0035541228649985 Phases=3

New Load.load_p1rlv3251 conn=wye bus1=p1rlv3251.1.2 kV=0.2080002494301389 Vminpu=0.8 Vmaxpu=1.2 model=1 kW=4.52005 kvar=0.9201976880580982 Phases=2

New Load.load_p1rlv3252 conn=wye bus1=p1rlv3252.1.2 kV=0.2080002494301389 Vminpu=0.8 Vmaxpu=1.2 model=1 kW=1.02001 kvar=0.3399434706953838 Phases=2

New Load.load_p1rlv3253 conn=wye bus1=p1rlv3253.1.2 kV=0.2080002494301389 Vminpu=0.8 Vmaxpu=1.2 model=1 kW=0.520005 kvar=0.16999297526842666 Phases=2

New Load.load_p1rlv3254 conn=wye bus1=p1rlv3254.1.2 kV=0.2080002494301389 Vminpu=0.8 Vmaxpu=1.2 model=1 kW=6.19006 kvar=1.2601805070609642 Phases=2

New Load.load_p1rlv3255 conn=wye bus1=p1rlv3255.1.2 kV=0.2080002494301389 Vminpu=0.8 Vmaxpu=1.2 model=1 kW=18.7102 kvar=3.7992681521943474 Phases=2

New Load.load_p1rlv3256 conn=wye bus1=p1rlv3256.1.2 kV=0.2080002494301389 Vminpu=0.8 Vmaxpu=1.2 model=1 kW=6.350060000000001 kvar=1.2894346785455655 Phases=2

New Load.load_p1rlv3257 conn=wye bus1=p1rlv3257.1.2 kV=0.2080002494301389 Vminpu=0.8 Vmaxpu=1.2 model=1 kW=1.16001 kvar=0.38004052433685503 Phases=2

New Load.load_p1rlv3376 conn=wye bus1=p1rlv3376.1.2.3 kV=0.48 Vminpu=0.8 Vmaxpu=1.2 model=1 kW=29.110299999999995 kvar=5.911098528654055 Phases=3

New Load.load_p1rlv3381 conn=wye bus1=p1rlv3381.1.2 kV=0.2080002494301389 Vminpu=0.8 Vmaxpu=1.2 model=1 kW=0.690007 kvar=0.22996183800561726 Phases=2

New Load.load_p1rlv3527 conn=wye bus1=p1rlv3527.1.2 kV=0.2080002494301389 Vminpu=0.8 Vmaxpu=1.2 model=1 kW=9.01009 kvar=1.8295768075918357 Phases=2

New Load.load_p1rlv3528 conn=wye bus1=p1rlv3528.1.2 kV=0.2080002494301389 Vminpu=0.8 Vmaxpu=1.2 model=1 kW=6.86007 kvar=1.3894030828217663 Phases=2

New Load.load_p1rlv3531 conn=wye bus1=p1rlv3531.1.2 kV=0.2080002494301389 Vminpu=0.8 Vmaxpu=1.2 model=1 kW=5.84006 kvar=1.1889270495062174 Phases=2

New Load.load_p1rlv3532 conn=wye bus1=p1rlv3532.1.2 kV=0.2080002494301389 Vminpu=0.8 Vmaxpu=1.2 model=1 kW=6.43006 kvar=1.3090400208127908 Phases=2

New Load.load_p1rlv3674 conn=wye bus1=p1rlv3674.1.2 kV=0.2080002494301389 Vminpu=0.8 Vmaxpu=1.2 model=1 kW=5.93006 kvar=1.2010436694258284 Phases=2

New Load.load_p1rlv3675 conn=wye bus1=p1rlv3675.1.2 kV=0.2080002494301389 Vminpu=0.8 Vmaxpu=1.2 model=1 kW=4.97005 kvar=1.630046445986728 Phases=2

New Load.load_p1rlv3677 conn=wye bus1=p1rlv3677.1.2 kV=0.2080002494301389 Vminpu=0.8 Vmaxpu=1.2 model=1 kW=5.21005 kvar=1.0606687900945995 Phases=2

New Load.load_p1rlv3810 conn=wye bus1=p1rlv3810.1.2 kV=0.2080002494301389 Vminpu=0.8 Vmaxpu=1.2 model=1 kW=3.9800400000000002 kvar=0.8102617463034154 Phases=2

New Load.load_p1rlv3811 conn=wye bus1=p1rlv3811.1.2 kV=0.2080002494301389 Vminpu=0.8 Vmaxpu=1.2 model=1 kW=11.7101 kvar=3.8489237400550054 Phases=2

New Load.load_p1rlv3812 conn=wye bus1=p1rlv3812.1.2 kV=0.2080002494301389 Vminpu=0.8 Vmaxpu=1.2 model=1 kW=4.97005 kvar=1.009211696284033 Phases=2

New Load.load_p1rlv3813 conn=wye bus1=p1rlv3813.1.2 kV=0.2080002494301389 Vminpu=0.8 Vmaxpu=1.2 model=1 kW=5.83006 kvar=1.180790186840056 Phases=2

New Load.load_p1rlv3921 conn=wye bus1=p1rlv3921.1.2 kV=0.2080002494301389 Vminpu=0.8 Vmaxpu=1.2 model=1 kW=3.44003 kvar=0.7003258045487328 Phases=2

New Load.load_p1rlv3922 conn=wye bus1=p1rlv3922.1.2 kV=0.2080002494301389 Vminpu=0.8 Vmaxpu=1.2 model=1 kW=5.29005 kvar=1.0686419089616372 Phases=2

New Load.load_p1rlv3923 conn=wye bus1=p1rlv3923.1.2 kV=0.2080002494301389 Vminpu=0.8 Vmaxpu=1.2 model=1 kW=7.29007 kvar=1.4803118501281356 Phases=2

New Load.load_p1rlv3927 conn=wye bus1=p1rlv3927.1.2 kV=0.2080002494301389 Vminpu=0.8 Vmaxpu=1.2 model=1 kW=4.52005 kvar=0.9201976880580982 Phases=2

New Load.load_p1rlv3929 conn=wye bus1=p1rlv3929.1.2 kV=0.2080002494301389 Vminpu=0.8 Vmaxpu=1.2 model=1 kW=8.00008 kvar=1.6202948096478251 Phases=2

New Load.load_p1rlv4061 conn=wye bus1=p1rlv4061.1.2 kV=0.2080002494301389 Vminpu=0.8 Vmaxpu=1.2 model=1 kW=3.24003 kvar=1.0603403448555304 Phases=2

New Load.load_p1rlv4064 conn=wye bus1=p1rlv4064.1.2 kV=0.2080002494301389 Vminpu=0.8 Vmaxpu=1.2 model=1 kW=4.81005 kvar=0.9792362671748885 Phases=2

New Load.load_p1rlv4073 conn=wye bus1=p1rlv4073.1.2 kV=0.2080002494301389 Vminpu=0.8 Vmaxpu=1.2 model=1 kW=1.15001 kvar=0.3800265653418643 Phases=2

New Load.load_p1rlv4191 conn=wye bus1=p1rlv4191.1.2 kV=0.2080002494301389 Vminpu=0.8 Vmaxpu=1.2 model=1 kW=0.580006 kvar=0.1900205897867449 Phases=2

New Load.load_p1rlv4192 conn=wye bus1=p1rlv4192.1.2 kV=0.2080002494301389 Vminpu=0.8 Vmaxpu=1.2 model=1 kW=4.98005 kvar=1.011242282890373 Phases=2

New Load.load_p1rlv4193 conn=wye bus1=p1rlv4193.1.2 kV=0.2080002494301389 Vminpu=0.8 Vmaxpu=1.2 model=1 kW=6.48006 kvar=1.3192190861777544 Phases=2

New Load.load_p1rlv4194 conn=wye bus1=p1rlv4194.1.2 kV=0.2080002494301389 Vminpu=0.8 Vmaxpu=1.2 model=1 kW=6.21006 kvar=1.2610064660568046 Phases=2

New Load.load_p1rlv4196 conn=wye bus1=p1rlv4196.1.2 kV=0.2080002494301389 Vminpu=0.8 Vmaxpu=1.2 model=1 kW=4.95005 kvar=0.999958579116559 Phases=2

New Load.load_p1rlv4197 conn=wye bus1=p1rlv4197.1.2 kV=0.2080002494301389 Vminpu=0.8 Vmaxpu=1.2 model=1 kW=0.570006 kvar=0.18996854732521534 Phases=2

New Load.load_p1rlv4198 conn=wye bus1=p1rlv4198.1.2 kV=0.2080002494301389 Vminpu=0.8 Vmaxpu=1.2 model=1 kW=1.03001 kvar=0.3400077071063403 Phases=2

New Load.load_p1rlv4199 conn=wye bus1=p1rlv4199.1.2 kV=0.2080002494301389 Vminpu=0.8 Vmaxpu=1.2 model=1 kW=7.44007 kvar=1.5107706492232365 Phases=2

New Load.load_p1rlv4334 conn=wye bus1=p1rlv4334.1.2 kV=0.2080002494301389 Vminpu=0.8 Vmaxpu=1.2 model=1 kW=2.81003 kvar=0.570600928141371 Phases=2

New Load.load_p1rlv4335 conn=wye bus1=p1rlv4335.1.2 kV=0.2080002494301389 Vminpu=0.8 Vmaxpu=1.2 model=1 kW=5.69006 kvar=1.149447846524372 Phases=2

New Load.load_p1rlv4336 conn=wye bus1=p1rlv4336.1.2 kV=0.2080002494301389 Vminpu=0.8 Vmaxpu=1.2 model=1 kW=5.19005 kvar=1.0511658729428572 Phases=2

New Load.load_p1rlv4337 conn=wye bus1=p1rlv4337.1.2 kV=0.2080002494301389 Vminpu=0.8 Vmaxpu=1.2 model=1 kW=3.63004 kvar=0.7409012375272501 Phases=2

New Load.load_p1rlv4488 conn=wye bus1=p1rlv4488.1.2 kV=0.2080002494301389 Vminpu=0.8 Vmaxpu=1.2 model=1 kW=5.10005 kvar=1.0302600481658584 Phases=2

New Load.load_p1rlv4489 conn=wye bus1=p1rlv4489.1.2 kV=0.2080002494301389 Vminpu=0.8 Vmaxpu=1.2 model=1 kW=6.84007 kvar=1.3889354528428337 Phases=2

New Load.load_p1rlv4490 conn=wye bus1=p1rlv4490.1.2 kV=0.2080002494301389 Vminpu=0.8 Vmaxpu=1.2 model=1 kW=4.4900400000000005 kvar=0.9093894694941951 Phases=2

New Load.load_p1rlv4491 conn=wye bus1=p1rlv4491.1.2 kV=0.2080002494301389 Vminpu=0.8 Vmaxpu=1.2 model=1 kW=7.15007 kvar=1.448138182320505 Phases=2

New Load.load_p1rlv4492 conn=wye bus1=p1rlv4492.1.2 kV=0.2080002494301389 Vminpu=0.8 Vmaxpu=1.2 model=1 kW=2.94003 kvar=0.6000682817178988 Phases=2

New Load.load_p1rlv4493 conn=wye bus1=p1rlv4493.1.2 kV=0.2080002494301389 Vminpu=0.8 Vmaxpu=1.2 model=1 kW=4.880050000000001 kvar=0.9909364168269728 Phases=2

New Load.load_p1rlv4495 conn=wye bus1=p1rlv4495.1.2 kV=0.2080002494301389 Vminpu=0.8 Vmaxpu=1.2 model=1 kW=5.71006 kvar=1.1594771357398026 Phases=2

New Load.load_p1rlv4499 conn=wye bus1=p1rlv4499.1.2 kV=0.2080002494301389 Vminpu=0.8 Vmaxpu=1.2 model=1 kW=6.66007 kvar=1.348896117650222 Phases=2

New Load.load_p1rlv4619 conn=wye bus1=p1rlv4619.1.2 kV=0.2080002494301389 Vminpu=0.8 Vmaxpu=1.2 model=1 kW=5.47005 kvar=1.110741026601035 Phases=2

New Load.load_p1rlv4623 conn=wye bus1=p1rlv4623.1.2 kV=0.2080002494301389 Vminpu=0.8 Vmaxpu=1.2 model=1 kW=6.33006 kvar=1.2886818900828627 Phases=2

New Load.load_p1rlv4626 conn=wye bus1=p1rlv4626.1.2 kV=0.2080002494301389 Vminpu=0.8 Vmaxpu=1.2 model=1 kW=6.40006 kvar=1.2995876115772655 Phases=2

New Load.load_p1rlv4773 conn=wye bus1=p1rlv4773.1.2 kV=0.2080002494301389 Vminpu=0.8 Vmaxpu=1.2 model=1 kW=3.9800400000000002 kvar=0.8102617463034154 Phases=2

New Load.load_p1rlv4775 conn=wye bus1=p1rlv4775.1.2 kV=0.2080002494301389 Vminpu=0.8 Vmaxpu=1.2 model=1 kW=7.34007 kvar=1.4904647831598359 Phases=2

New Load.load_p1rlv4779 conn=wye bus1=p1rlv4779.1.2.3 kV=0.48 Vminpu=0.8 Vmaxpu=1.2 model=1 kW=134.351 kvar=27.281134114839116 Phases=3

New Load.load_p1rlv4919 conn=wye bus1=p1rlv4919.1.2 kV=0.2080002494301389 Vminpu=0.8 Vmaxpu=1.2 model=1 kW=10.7001 kvar=3.5207483254176357 Phases=2

New Load.load_p1rlv4920 conn=wye bus1=p1rlv4920.1.2 kV=0.2080002494301389 Vminpu=0.8 Vmaxpu=1.2 model=1 kW=5.18005 kvar=1.0491405246842802 Phases=2

New Load.load_p1rlv4921 conn=wye bus1=p1rlv4921.1.2 kV=0.2080002494301389 Vminpu=0.8 Vmaxpu=1.2 model=1 kW=5.12005 kvar=1.0396704953791336 Phases=2

New Load.load_p1rlv4922 conn=wye bus1=p1rlv4922.1.2 kV=0.2080002494301389 Vminpu=0.8 Vmaxpu=1.2 model=1 kW=9.120090000000001 kvar=1.8519132602615762 Phases=2

New Load.load_p1rlv4925 conn=wye bus1=p1rlv4925.1.2 kV=0.2080002494301389 Vminpu=0.8 Vmaxpu=1.2 model=1 kW=8.73009 kvar=1.7681472578722188 Phases=2

New Load.load_p1rlv4926 conn=wye bus1=p1rlv4926.1.2 kV=0.2080002494301389 Vminpu=0.8 Vmaxpu=1.2 model=1 kW=7.31007 kvar=1.4805437544577398 Phases=2

New Load.load_p1rlv5039 conn=wye bus1=p1rlv5039.1.2 kV=0.2080002494301389 Vminpu=0.8 Vmaxpu=1.2 model=1 kW=7.14007 kvar=1.449853051033035 Phases=2

New Load.load_p1rlv5040 conn=wye bus1=p1rlv5040.1.2 kV=0.2080002494301389 Vminpu=0.8 Vmaxpu=1.2 model=1 kW=6.85007 kvar=2.249077419864932 Phases=2

New Load.load_p1rlv5041 conn=wye bus1=p1rlv5041.1.2 kV=0.2080002494301389 Vminpu=0.8 Vmaxpu=1.2 model=1 kW=2.20002 kvar=0.7199840635701102 Phases=2

New Load.load_p1rlv5043 conn=wye bus1=p1rlv5043.1.2 kV=0.2080002494301389 Vminpu=0.8 Vmaxpu=1.2 model=1 kW=6.84007 kvar=1.3889354528428337 Phases=2

New Load.load_p1rlv5044 conn=wye bus1=p1rlv5044.1.2 kV=0.2080002494301389 Vminpu=0.8 Vmaxpu=1.2 model=1 kW=5.090050000000001 kvar=1.0309123903570856 Phases=2

New Load.load_p1rlv5164 conn=wye bus1=p1rlv5164.1.2 kV=0.2080002494301389 Vminpu=0.8 Vmaxpu=1.2 model=1 kW=1.84002 kvar=0.36976324162285545 Phases=2

New Load.load_p1rlv5165 conn=wye bus1=p1rlv5165.1.2 kV=0.2080002494301389 Vminpu=0.8 Vmaxpu=1.2 model=1 kW=3.56004 kvar=0.7191629458284491 Phases=2

New Load.load_p1rlv5166 conn=wye bus1=p1rlv5166.1.2 kV=0.2080002494301389 Vminpu=0.8 Vmaxpu=1.2 model=1 kW=0.860009 kvar=0.2799151464745127 Phases=2

New Load.load_p1rlv5167 conn=wye bus1=p1rlv5167.1.2 kV=0.2080002494301389 Vminpu=0.8 Vmaxpu=1.2 model=1 kW=4.76005 kvar=0.9690572018099246 Phases=2

New Load.load_p1rlv5292 conn=wye bus1=p1rlv5292.1.2 kV=0.2080002494301389 Vminpu=0.8 Vmaxpu=1.2 model=1 kW=4.03004 kvar=1.3203149237493634 Phases=2

New Load.load_p1rlv5293 conn=wye bus1=p1rlv5293.1.2 kV=0.2080002494301389 Vminpu=0.8 Vmaxpu=1.2 model=1 kW=5.71006 kvar=1.1594771357398026 Phases=2

New Load.load_p1rlv5432 conn=wye bus1=p1rlv5432.1.2 kV=0.2080002494301389 Vminpu=0.8 Vmaxpu=1.2 model=1 kW=5.54006 kvar=1.1191463774750727 Phases=2

New Load.load_p1rlv5435 conn=wye bus1=p1rlv5435.1.2 kV=0.2080002494301389 Vminpu=0.8 Vmaxpu=1.2 model=1 kW=3.17003 kvar=0.6403771062023346 Phases=2

New Load.load_p1rlv5436 conn=wye bus1=p1rlv5436.1.2 kV=0.2080002494301389 Vminpu=0.8 Vmaxpu=1.2 model=1 kW=3.6900400000000007 kvar=1.2102366349531428 Phases=2

New Load.load_p1rlv5555 conn=wye bus1=p1rlv5555.1.2 kV=0.2080002494301389 Vminpu=0.8 Vmaxpu=1.2 model=1 kW=8.37008 kvar=1.6996172341994666 Phases=2

New Load.load_p1rlv5556 conn=wye bus1=p1rlv5556.1.2 kV=0.2080002494301389 Vminpu=0.8 Vmaxpu=1.2 model=1 kW=6.21006 kvar=2.0389435030600302 Phases=2

New Load.load_p1rlv5557 conn=wye bus1=p1rlv5557.1.2 kV=0.2080002494301389 Vminpu=0.8 Vmaxpu=1.2 model=1 kW=1.3100100000000001 kvar=0.43011442376461256 Phases=2

New Load.load_p1rlv5558 conn=wye bus1=p1rlv5558.1.2 kV=0.2080002494301389 Vminpu=0.8 Vmaxpu=1.2 model=1 kW=5.25005 kvar=1.0688120423865706 Phases=2

New Load.load_p1rlv5559 conn=wye bus1=p1rlv5559.1.2 kV=0.2080002494301389 Vminpu=0.8 Vmaxpu=1.2 model=1 kW=4.36004 kvar=0.8898962633106831 Phases=2

New Load.load_p1rlv5710 conn=wye bus1=p1rlv5710.1.2 kV=0.2080002494301389 Vminpu=0.8 Vmaxpu=1.2 model=1 kW=2.84003 kvar=0.5796580042133189 Phases=2

New Load.load_p1rlv5711 conn=wye bus1=p1rlv5711.1.2 kV=0.2080002494301389 Vminpu=0.8 Vmaxpu=1.2 model=1 kW=6.79007 kvar=1.3787825198111334 Phases=2

New Load.load_p1rlv5712 conn=wye bus1=p1rlv5712.1.2 kV=0.2080002494301389 Vminpu=0.8 Vmaxpu=1.2 model=1 kW=1.94002 kvar=0.6397166547516957 Phases=2

New Load.load_p1rlv5714 conn=wye bus1=p1rlv5714.1.2 kV=0.2080002494301389 Vminpu=0.8 Vmaxpu=1.2 model=1 kW=2.59003 kvar=0.8503822573744166 Phases=2

New Load.load_p1rlv5831 conn=wye bus1=p1rlv5831.1.2 kV=0.2080002494301389 Vminpu=0.8 Vmaxpu=1.2 model=1 kW=7.12007 kvar=1.449513158662365 Phases=2

New Load.load_p1rlv5832 conn=wye bus1=p1rlv5832.1.2 kV=0.2080002494301389 Vminpu=0.8 Vmaxpu=1.2 model=1 kW=6.140060000000001 kvar=1.2500014416960006 Phases=2

New Load.load_p1rlv5970 conn=wye bus1=p1rlv5970.1.2 kV=0.2080002494301389 Vminpu=0.8 Vmaxpu=1.2 model=1 kW=2.72003 kvar=0.890163840525362 Phases=2

New Load.load_p1rlv5972 conn=wye bus1=p1rlv5972.1.2 kV=0.2080002494301389 Vminpu=0.8 Vmaxpu=1.2 model=1 kW=3.10003 kvar=0.6294879397252322 Phases=2

New Load.load_p1rlv5973 conn=wye bus1=p1rlv5973.1.2 kV=0.2080002494301389 Vminpu=0.8 Vmaxpu=1.2 model=1 kW=0.3000030000000001 kvar=0.0999833933383273 Phases=2

New Load.load_p1rlv5974 conn=wye bus1=p1rlv5974.1.2 kV=0.2080002494301389 Vminpu=0.8 Vmaxpu=1.2 model=1 kW=1.64002 kvar=0.5402115565350929 Phases=2

New Load.load_p1rlv5975 conn=wye bus1=p1rlv5975.1.2 kV=0.2080002494301389 Vminpu=0.8 Vmaxpu=1.2 model=1 kW=6.80007 kvar=1.3808131064174733 Phases=2

New Load.load_p1rlv6097 conn=wye bus1=p1rlv6097.1.2 kV=0.2080002494301389 Vminpu=0.8 Vmaxpu=1.2 model=1 kW=8.58009 kvar=1.742261583519214 Phases=2

New Load.load_p1rlv6098 conn=wye bus1=p1rlv6098.1.2 kV=0.2080002494301389 Vminpu=0.8 Vmaxpu=1.2 model=1 kW=6.45006 kvar=1.3097405446089656 Phases=2

New Load.load_p1rlv6212 conn=wye bus1=p1rlv6212.1.2.3 kV=0.48 Vminpu=0.8 Vmaxpu=1.2 model=1 kW=63.73060000000001 kvar=12.941050277401475 Phases=3

New Load.load_p1rlv6216 conn=wye bus1=p1rlv6216.1.2 kV=0.2080002494301389 Vminpu=0.8 Vmaxpu=1.2 model=1 kW=0.720007 kvar=0.23996007735705646 Phases=2

New Load.load_p1rlv6217 conn=wye bus1=p1rlv6217.1.2 kV=0.2080002494301389 Vminpu=0.8 Vmaxpu=1.2 model=1 kW=1.58002 kvar=0.32000907555171404 Phases=2

New Load.load_p1rlv6218 conn=wye bus1=p1rlv6218.1.2 kV=0.2080002494301389 Vminpu=0.8 Vmaxpu=1.2 model=1 kW=5.28005 kvar=1.069394007270052 Phases=2

New Load.load_p1rlv6219 conn=wye bus1=p1rlv6219.1.2 kV=0.2080002494301389 Vminpu=0.8 Vmaxpu=1.2 model=1 kW=7.82008 kvar=1.5920221095849323 Phases=2

New Load.load_p1rlv6347 conn=wye bus1=p1rlv6347.1.2 kV=0.2080002494301389 Vminpu=0.8 Vmaxpu=1.2 model=1 kW=5.460050000000001 kvar=1.1087104399946952 Phases=2

New Load.load_p1rlv6348 conn=wye bus1=p1rlv6348.1.2 kV=0.2080002494301389 Vminpu=0.8 Vmaxpu=1.2 model=1 kW=6.07006 kvar=1.2293985450459088 Phases=2

New Load.load_p1rlv6350 conn=wye bus1=p1rlv6350.1.2 kV=0.2080002494301389 Vminpu=0.8 Vmaxpu=1.2 model=1 kW=1.22001 kvar=0.40013137987912967 Phases=2

New Load.load_p1rlv6351 conn=wye bus1=p1rlv6351.1.2 kV=0.2080002494301389 Vminpu=0.8 Vmaxpu=1.2 model=1 kW=3.61004 kvar=0.7292634355115489 Phases=2

New Load.load_p1rlv6352 conn=wye bus1=p1rlv6352.1.2 kV=0.2080002494301389 Vminpu=0.8 Vmaxpu=1.2 model=1 kW=1.60002 kvar=0.529865022157608 Phases=2

New Load.load_p1rlv6353 conn=wye bus1=p1rlv6353.1.2 kV=0.2080002494301389 Vminpu=0.8 Vmaxpu=1.2 model=1 kW=7.05007 kvar=1.4315777715759745 Phases=2

New Load.load_p1rlv6462 conn=wye bus1=p1rlv6462.1.2 kV=0.2080002494301389 Vminpu=0.8 Vmaxpu=1.2 model=1 kW=5.19005 kvar=1.0511658729428572 Phases=2

New Load.load_p1rlv6463 conn=wye bus1=p1rlv6463.1.2 kV=0.2080002494301389 Vminpu=0.8 Vmaxpu=1.2 model=1 kW=5.20005 kvar=1.061344635376904 Phases=2

New Load.load_p1rlv6464 conn=wye bus1=p1rlv6464.1.2 kV=0.2080002494301389 Vminpu=0.8 Vmaxpu=1.2 model=1 kW=6.04006 kvar=1.2296433109660727 Phases=2

New Load.load_p1rlv6465 conn=wye bus1=p1rlv6465.1.2 kV=0.2080002494301389 Vminpu=0.8 Vmaxpu=1.2 model=1 kW=7.47007 kvar=1.520766616217112 Phases=2

New Load.load_p1rlv6466 conn=wye bus1=p1rlv6466.1.2 kV=0.2080002494301389 Vminpu=0.8 Vmaxpu=1.2 model=1 kW=4.13004 kvar=0.840798942398307 Phases=2

New Load.load_p1rlv6467 conn=wye bus1=p1rlv6467.1.2 kV=0.2080002494301389 Vminpu=0.8 Vmaxpu=1.2 model=1 kW=3.39003 kvar=0.6901467391837689 Phases=2

New Load.load_p1rlv6468 conn=wye bus1=p1rlv6468.1.2 kV=0.2080002494301389 Vminpu=0.8 Vmaxpu=1.2 model=1 kW=1.01001 kvar=0.3301787578020665 Phases=2

New Load.load_p1rlv6469 conn=wye bus1=p1rlv6469.1.2 kV=0.2080002494301389 Vminpu=0.8 Vmaxpu=1.2 model=1 kW=8.59009 kvar=1.7397923822521382 Phases=2

New Load.load_p1rlv6592 conn=wye bus1=p1rlv6592.1.2 kV=0.2080002494301389 Vminpu=0.8 Vmaxpu=1.2 model=1 kW=0.310003 kvar=0.10001057490242071 Phases=2
