New Transformer.tr(r:p1rdt46-p1rdt46lv) phases=1 windings=3 %loadloss=0.798816 %Noloadloss=0.472 normhkva=27.5 wdg=1 conn=wye bus=p1rdt46.2 Kv=7.199560000000001 kva=25.0 EmergHKVA=37.5 %r=0.266272 wdg=2 conn=wye bus=p1rdt46lv.1.0 Kv=0.120089 kva=25.0 EmergHKVA=37.5 %r=0.532544 wdg=3 conn=wye bus=p1rdt46lv.0.2 Kv=0.120089 kva=25.0 EmergHKVA=37.5 %r=0.532544 XHL=2.4 XLT=2.4 XHT=1.6

New Transformer.tr(r:p1rdt47-p1rdt47lv) phases=1 windings=3 %loadloss=0.798816 %Noloadloss=0.37 normhkva=55.0 wdg=1 conn=wye bus=p1rdt47.1 Kv=7.199560000000001 kva=50.0 EmergHKVA=75.0 %r=0.266272 wdg=2 conn=wye bus=p1rdt47lv.1.0 Kv=0.120089 kva=50.0 EmergHKVA=75.0 %r=0.532544 wdg=3 conn=wye bus=p1rdt47lv.0.2 Kv=0.120089 kva=50.0 EmergHKVA=75.0 %r=0.532544 XHL=2.4 XLT=2.4 XHT=1.6

New Transformer.tr(r:p1rdt176-p1rdt176lv) phases=1 windings=3 %loadloss=0.798816 %Noloadloss=0.472 normhkva=27.5 wdg=1 conn=wye bus=p1rdt176.1 Kv=7.199560000000001 kva=25.0 EmergHKVA=37.5 %r=0.266272 wdg=2 conn=wye bus=p1rdt176lv.1.0 Kv=0.120089 kva=25.0 EmergHKVA=37.5 %r=0.532544 wdg=3 conn=wye bus=p1rdt176lv.0.2 Kv=0.120089 kva=25.0 EmergHKVA=37.5 %r=0.532544 XHL=2.4 XLT=2.4 XHT=1.6

New Transformer.tr(r:p1rdt177-p1rdt177lv) phases=1 windings=3 %loadloss=0.798816 %Noloadloss=0.472 normhkva=27.5 wdg=1 conn=wye bus=p1rdt177.1 Kv=7.199560000000001 kva=25.0 EmergHKVA=37.5 %r=0.266272 wdg=2 conn=wye bus=p1rdt177lv.1.0 Kv=0.120089 kva=25.0 EmergHKVA=37.5 %r=0.532544 wdg=3 conn=wye bus=p1rdt177lv.0.2 Kv=0.120089 kva=25.0 EmergHKVA=37.5 %r=0.532544 XHL=2.4 XLT=2.4 XHT=1.6

New Transformer.tr(r:p1rdt178-p1rdt178lv) phases=1 windings=3 %loadloss=1.248151 %Noloadloss=0.68 normhkva=11.0 wdg=1 conn=wye bus=p1rdt178.2 Kv=7.199560000000001 kva=10.0 EmergHKVA=15.0 %r=0.41605 wdg=2 conn=wye bus=p1rdt178lv.1.0 Kv=0.120089 kva=10.0 EmergHKVA=15.0 %r=0.832101 wdg=3 conn=wye bus=p1rdt178lv.0.2 Kv=0.120089 kva=10.0 EmergHKVA=15.0 %r=0.832101 XHL=1.08 XLT=1.08 XHT=0.72

New Transformer.tr(r:p1rdt312-p1rdt312lv) phases=1 windings=3 %loadloss=0.798816 %Noloadloss=0.472 normhkva=27.5 wdg=1 conn=wye bus=p1rdt312.3 Kv=7.199560000000001 kva=25.0 EmergHKVA=37.5 %r=0.266272 wdg=2 conn=wye bus=p1rdt312lv.1.0 Kv=0.120089 kva=25.0 EmergHKVA=37.5 %r=0.532544 wdg=3 conn=wye bus=p1rdt312lv.0.2 Kv=0.120089 kva=25.0 EmergHKVA=37.5 %r=0.532544 XHL=2.4 XLT=2.4 XHT=1.6

New Transformer.tr(r:p1rdt313-p1rdt313lv) phases=1 windings=3 %loadloss=0.798816 %Noloadloss=0.472 normhkva=27.5 wdg=1 conn=wye bus=p1rdt313.3 Kv=7.199560000000001 kva=25.0 EmergHKVA=37.5 %r=0.266272 wdg=2 conn=wye bus=p1rdt313lv.1.0 Kv=0.120089 kva=25.0 EmergHKVA=37.5 %r=0.532544 wdg=3 conn=wye bus=p1rdt313lv.0.2 Kv=0.120089 kva=25.0 EmergHKVA=37.5 %r=0.532544 XHL=2.4 XLT=2.4 XHT=1.6

New Transformer.tr(r:p1rdt314-p1rdt314lv) phases=1 windings=3 %loadloss=1.248151 %Noloadloss=0.68 normhkva=11.0 wdg=1 conn=wye bus=p1rdt314.2 Kv=7.199560000000001 kva=10.0 EmergHKVA=15.0 %r=0.41605 wdg=2 conn=wye bus=p1rdt314lv.1.0 Kv=0.120089 kva=10.0 EmergHKVA=15.0 %r=0.832101 wdg=3 conn=wye bus=p1rdt314lv.0.2 Kv=0.120089 kva=10.0 EmergHKVA=15.0 %r=0.832101 XHL=1.08 XLT=1.08 XHT=0.72

New Transformer.tr(r:p1rdt315-p1rdt315lv) phases=1 windings=3 %loadloss=0.798816 %Noloadloss=0.472 normhkva=27.5 wdg=1 conn=wye bus=p1rdt315.1 Kv=7.199560000000001 kva=25.0 EmergHKVA=37.5 %r=0.266272 wdg=2 conn=wye bus=p1rdt315lv.1.0 Kv=0.120089 kva=25.0 EmergHKVA=37.5 %r=0.532544 wdg=3 conn=wye bus=p1rdt315lv.0.2 Kv=0.120089 kva=25.0 EmergHKVA=37.5 %r=0.532544 XHL=2.4 XLT=2.4 XHT=1.6

New Transformer.tr(r:p1rdt317-p1rdt317lv) phases=1 windings=3 %loadloss=1.248151 %Noloadloss=0.68 normhkva=11.0 wdg=1 conn=wye bus=p1rdt317.3 Kv=7.199560000000001 kva=10.0 EmergHKVA=15.0 %r=0.41605 wdg=2 conn=wye bus=p1rdt317lv.1.0 Kv=0.120089 kva=10.0 EmergHKVA=15.0 %r=0.832101 wdg=3 conn=wye bus=p1rdt317lv.0.2 Kv=0.120089 kva=10.0 EmergHKVA=15.0 %r=0.832101 XHL=1.08 XLT=1.08 XHT=0.72

New Transformer.tr(r:p1rdt435-p1rdt435lv) phases=1 windings=3 %loadloss=1.248151 %Noloadloss=0.68 normhkva=11.0 wdg=1 conn=wye bus=p1rdt435.2 Kv=7.199560000000001 kva=10.0 EmergHKVA=15.0 %r=0.41605 wdg=2 conn=wye bus=p1rdt435lv.1.0 Kv=0.120089 kva=10.0 EmergHKVA=15.0 %r=0.832101 wdg=3 conn=wye bus=p1rdt435lv.0.2 Kv=0.120089 kva=10.0 EmergHKVA=15.0 %r=0.832101 XHL=1.08 XLT=1.08 XHT=0.72

New Transformer.tr(r:p1rdt436-p1rdt436lv) phases=1 windings=3 %loadloss=0.798816 %Noloadloss=0.472 normhkva=27.5 wdg=1 conn=wye bus=p1rdt436.3 Kv=7.199560000000001 kva=25.0 EmergHKVA=37.5 %r=0.266272 wdg=2 conn=wye bus=p1rdt436lv.1.0 Kv=0.120089 kva=25.0 EmergHKVA=37.5 %r=0.532544 wdg=3 conn=wye bus=p1rdt436lv.0.2 Kv=0.120089 kva=25.0 EmergHKVA=37.5 %r=0.532544 XHL=2.4 XLT=2.4 XHT=1.6

New Transformer.tr(r:p1rdt437-p1rdt437lv) phases=1 windings=3 %loadloss=0.798816 %Noloadloss=0.472 normhkva=27.5 wdg=1 conn=wye bus=p1rdt437.2 Kv=7.199560000000001 kva=25.0 EmergHKVA=37.5 %r=0.266272 wdg=2 conn=wye bus=p1rdt437lv.1.0 Kv=0.120089 kva=25.0 EmergHKVA=37.5 %r=0.532544 wdg=3 conn=wye bus=p1rdt437lv.0.2 Kv=0.120089 kva=25.0 EmergHKVA=37.5 %r=0.532544 XHL=2.4 XLT=2.4 XHT=1.6

New Transformer.tr(r:p1rdt438-p1rdt438lv) phases=1 windings=3 %loadloss=0.798816 %Noloadloss=0.472 normhkva=27.5 wdg=1 conn=wye bus=p1rdt438.1 Kv=7.199560000000001 kva=25.0 EmergHKVA=37.5 %r=0.266272 wdg=2 conn=wye bus=p1rdt438lv.1.0 Kv=0.120089 kva=25.0 EmergHKVA=37.5 %r=0.532544 wdg=3 conn=wye bus=p1rdt438lv.0.2 Kv=0.120089 kva=25.0 EmergHKVA=37.5 %r=0.532544 XHL=2.4 XLT=2.4 XHT=1.6

New Transformer.tr(r:p1rdt439-p1rdt439lv) phases=1 windings=3 %loadloss=1.248151 %Noloadloss=0.68 normhkva=11.0 wdg=1 conn=wye bus=p1rdt439.2 Kv=7.199560000000001 kva=10.0 EmergHKVA=15.0 %r=0.41605 wdg=2 conn=wye bus=p1rdt439lv.1.0 Kv=0.120089 kva=10.0 EmergHKVA=15.0 %r=0.832101 wdg=3 conn=wye bus=p1rdt439lv.0.2 Kv=0.120089 kva=10.0 EmergHKVA=15.0 %r=0.832101 XHL=1.08 XLT=1.08 XHT=0.72

New Transformer.tr(r:p1rdt556-p1rdt556lv) phases=1 windings=3 %loadloss=0.798816 %Noloadloss=0.472 normhkva=27.5 wdg=1 conn=wye bus=p1rdt556.2 Kv=7.199560000000001 kva=25.0 EmergHKVA=37.5 %r=0.266272 wdg=2 conn=wye bus=p1rdt556lv.1.0 Kv=0.120089 kva=25.0 EmergHKVA=37.5 %r=0.532544 wdg=3 conn=wye bus=p1rdt556lv.0.2 Kv=0.120089 kva=25.0 EmergHKVA=37.5 %r=0.532544 XHL=2.4 XLT=2.4 XHT=1.6

New Transformer.tr(r:p1rdt557-p1rdt557lv) phases=1 windings=3 %loadloss=0.798816 %Noloadloss=0.472 normhkva=27.5 wdg=1 conn=wye bus=p1rdt557.3 Kv=7.199560000000001 kva=25.0 EmergHKVA=37.5 %r=0.266272 wdg=2 conn=wye bus=p1rdt557lv.1.0 Kv=0.120089 kva=25.0 EmergHKVA=37.5 %r=0.532544 wdg=3 conn=wye bus=p1rdt557lv.0.2 Kv=0.120089 kva=25.0 EmergHKVA=37.5 %r=0.532544 XHL=2.4 XLT=2.4 XHT=1.6

New Transformer.tr(r:p1rdt559-p1rdt559lv) phases=1 windings=3 %loadloss=0.798816 %Noloadloss=0.472 normhkva=27.5 wdg=1 conn=wye bus=p1rdt559.1 Kv=7.199560000000001 kva=25.0 EmergHKVA=37.5 %r=0.266272 wdg=2 conn=wye bus=p1rdt559lv.1.0 Kv=0.120089 kva=25.0 EmergHKVA=37.5 %r=0.532544 wdg=3 conn=wye bus=p1rdt559lv.0.2 Kv=0.120089 kva=25.0 EmergHKVA=37.5 %r=0.532544 XHL=2.4 XLT=2.4 XHT=1.6

New Transformer.tr(r:p1rdt561-p1rdt561lv) phases=1 windings=3 %loadloss=0.798816 %Noloadloss=0.37 normhkva=55.0 wdg=1 conn=wye bus=p1rdt561.2 Kv=7.199560000000001 kva=50.0 EmergHKVA=75.0 %r=0.266272 wdg=2 conn=wye bus=p1rdt561lv.1.0 Kv=0.120089 kva=50.0 EmergHKVA=75.0 %r=0.532544 wdg=3 conn=wye bus=p1rdt561lv.0.2 Kv=0.120089 kva=50.0 EmergHKVA=75.0 %r=0.532544 XHL=2.4 XLT=2.4 XHT=1.6

New Transformer.tr(r:p1rdt689-p1rdt689lv) phases=1 windings=3 %loadloss=0.798816 %Noloadloss=0.472 normhkva=27.5 wdg=1 conn=wye bus=p1rdt689.3 Kv=7.199560000000001 kva=25.0 EmergHKVA=37.5 %r=0.266272 wdg=2 conn=wye bus=p1rdt689lv.1.0 Kv=0.120089 kva=25.0 EmergHKVA=37.5 %r=0.532544 wdg=3 conn=wye bus=p1rdt689lv.0.2 Kv=0.120089 kva=25.0 EmergHKVA=37.5 %r=0.532544 XHL=2.4 XLT=2.4 XHT=1.6

New Transformer.tr(r:p1rdt690-p1rdt690lv) phases=1 windings=3 %loadloss=0.798816 %Noloadloss=0.472 normhkva=27.5 wdg=1 conn=wye bus=p1rdt690.2 Kv=7.199560000000001 kva=25.0 EmergHKVA=37.5 %r=0.266272 wdg=2 conn=wye bus=p1rdt690lv.1.0 Kv=0.120089 kva=25.0 EmergHKVA=37.5 %r=0.532544 wdg=3 conn=wye bus=p1rdt690lv.0.2 Kv=0.120089 kva=25.0 EmergHKVA=37.5 %r=0.532544 XHL=2.4 XLT=2.4 XHT=1.6

New Transformer.tr(r:p1rdt691-p1rdt691lv) phases=1 windings=3 %loadloss=1.248151 %Noloadloss=0.68 normhkva=11.0 wdg=1 conn=wye bus=p1rdt691.2 Kv=7.199560000000001 kva=10.0 EmergHKVA=15.0 %r=0.41605 wdg=2 conn=wye bus=p1rdt691lv.1.0 Kv=0.120089 kva=10.0 EmergHKVA=15.0 %r=0.832101 wdg=3 conn=wye bus=p1rdt691lv.0.2 Kv=0.120089 kva=10.0 EmergHKVA=15.0 %r=0.832101 XHL=1.08 XLT=1.08 XHT=0.72

New Transformer.tr(r:p1rdt824-p1rdt824lv) phases=1 windings=3 %loadloss=0.798816 %Noloadloss=0.472 normhkva=27.5 wdg=1 conn=wye bus=p1rdt824.2 Kv=7.199560000000001 kva=25.0 EmergHKVA=37.5 %r=0.266272 wdg=2 conn=wye bus=p1rdt824lv.1.0 Kv=0.120089 kva=25.0 EmergHKVA=37.5 %r=0.532544 wdg=3 conn=wye bus=p1rdt824lv.0.2 Kv=0.120089 kva=25.0 EmergHKVA=37.5 %r=0.532544 XHL=2.4 XLT=2.4 XHT=1.6

New Transformer.tr(r:p1rdt826-p1rdt826lv) phases=1 windings=3 %loadloss=0.798816 %Noloadloss=0.472 normhkva=27.5 wdg=1 conn=wye bus=p1rdt826.1 Kv=7.199560000000001 kva=25.0 EmergHKVA=37.5 %r=0.266272 wdg=2 conn=wye bus=p1rdt826lv.1.0 Kv=0.120089 kva=25.0 EmergHKVA=37.5 %r=0.532544 wdg=3 conn=wye bus=p1rdt826lv.0.2 Kv=0.120089 kva=25.0 EmergHKVA=37.5 %r=0.532544 XHL=2.4 XLT=2.4 XHT=1.6

New Transformer.tr(r:p1rdt960-p1rdt960lv) phases=1 windings=3 %loadloss=0.798816 %Noloadloss=0.472 normhkva=27.5 wdg=1 conn=wye bus=p1rdt960.3 Kv=7.199560000000001 kva=25.0 EmergHKVA=37.5 %r=0.266272 wdg=2 conn=wye bus=p1rdt960lv.1.0 Kv=0.120089 kva=25.0 EmergHKVA=37.5 %r=0.532544 wdg=3 conn=wye bus=p1rdt960lv.0.2 Kv=0.120089 kva=25.0 EmergHKVA=37.5 %r=0.532544 XHL=2.4 XLT=2.4 XHT=1.6

New Transformer.tr(r:p1rdt964-p1rdt964lv) phases=3 windings=2 %loadloss=1.82396 %Noloadloss=0.325 normhkva=330.0 wdg=1 conn=wye Kv=12.47 kva=300.0 EmergHKVA=450.0 %R=0.91198 bus=p1rdt964 wdg=2 conn=wye Kv=0.48 kva=300.0 EmergHKVA=450.0 %R=0.91198 bus=p1rdt964lv XHL=3.7599999999999993

New Transformer.tr(r:p1rdt966-p1rdt966lv) phases=1 windings=3 %loadloss=0.798816 %Noloadloss=0.472 normhkva=27.5 wdg=1 conn=wye bus=p1rdt966.3 Kv=7.199560000000001 kva=25.0 EmergHKVA=37.5 %r=0.266272 wdg=2 conn=wye bus=p1rdt966lv.1.0 Kv=0.120089 kva=25.0 EmergHKVA=37.5 %r=0.532544 wdg=3 conn=wye bus=p1rdt966lv.0.2 Kv=0.120089 kva=25.0 EmergHKVA=37.5 %r=0.532544 XHL=2.4 XLT=2.4 XHT=1.6

New Transformer.tr(r:p1rdt1064-p1rdt1064lv) phases=1 windings=3 %loadloss=0.798816 %Noloadloss=0.472 normhkva=27.5 wdg=1 conn=wye bus=p1rdt1064.3 Kv=7.199560000000001 kva=25.0 EmergHKVA=37.5 %r=0.266272 wdg=2 conn=wye bus=p1rdt1064lv.1.0 Kv=0.120089 kva=25.0 EmergHKVA=37.5 %r=0.532544 wdg=3 conn=wye bus=p1rdt1064lv.0.2 Kv=0.120089 kva=25.0 EmergHKVA=37.5 %r=0.532544 XHL=2.4 XLT=2.4 XHT=1.6

New Transformer.tr(r:p1rdt1065-p1rdt1065lv) phases=1 windings=3 %loadloss=0.798816 %Noloadloss=0.472 normhkva=27.5 wdg=1 conn=wye bus=p1rdt1065.1 Kv=7.199560000000001 kva=25.0 EmergHKVA=37.5 %r=0.266272 wdg=2 conn=wye bus=p1rdt1065lv.1.0 Kv=0.120089 kva=25.0 EmergHKVA=37.5 %r=0.532544 wdg=3 conn=wye bus=p1rdt1065lv.0.2 Kv=0.120089 kva=25.0 EmergHKVA=37.5 %r=0.532544 XHL=2.4 XLT=2.4 XHT=1.6

New Transformer.tr(r:p1rdt1172-p1rdt1172lv) phases=1 windings=3 %loadloss=0.798816 %Noloadloss=0.37 normhkva=55.0 wdg=1 conn=wye bus=p1rdt1172.2 Kv=7.199560000000001 kva=50.0 EmergHKVA=75.0 %r=0.266272 wdg=2 conn=wye bus=p1rdt1172lv.1.0 Kv=0.120089 kva=50.0 EmergHKVA=75.0 %r=0.532544 wdg=3 conn=wye bus=p1rdt1172lv.0.2 Kv=0.120089 kva=50.0 EmergHKVA=75.0 %r=0.532544 XHL=2.4 XLT=2.4 XHT=1.6

New Transformer.tr(r:p1rdt1310-p1rdt1310lv) phases=1 windings=3 %loadloss=0.798816 %Noloadloss=0.472 normhkva=27.5 wdg=1 conn=wye bus=p1rdt1310.3 Kv=7.199560000000001 kva=25.0 EmergHKVA=37.5 %r=0.266272 wdg=2 conn=wye bus=p1rdt1310lv.1.0 Kv=0.120089 kva=25.0 EmergHKVA=37.5 %r=0.532544 wdg=3 conn=wye bus=p1rdt1310lv.0.2 Kv=0.120089 kva=25.0 EmergHKVA=37.5 %r=0.532544 XHL=2.4 XLT=2.4 XHT=1.6

New Transformer.tr(r:p1rdt1312-p1rdt1312lv) phases=1 windings=3 %loadloss=0.798816 %Noloadloss=0.472 normhkva=27.5 wdg=1 conn=wye bus=p1rdt1312.1 Kv=7.199560000000001 kva=25.0 EmergHKVA=37.5 %r=0.266272 wdg=2 conn=wye bus=p1rdt1312lv.1.0 Kv=0.120089 kva=25.0 EmergHKVA=37.5 %r=0.532544 wdg=3 conn=wye bus=p1rdt1312lv.0.2 Kv=0.120089 kva=25.0 EmergHKVA=37.5 %r=0.532544 XHL=2.4 XLT=2.4 XHT=1.6

New Transformer.tr(r:p1rdt1313-p1rdt1313lv) phases=1 windings=3 %loadloss=0.798816 %Noloadloss=0.472 normhkva=27.5 wdg=1 conn=wye bus=p1rdt1313.2 Kv=7.199560000000001 kva=25.0 EmergHKVA=37.5 %r=0.266272 wdg=2 conn=wye bus=p1rdt1313lv.1.0 Kv=0.120089 kva=25.0 EmergHKVA=37.5 %r=0.532544 wdg=3 conn=wye bus=p1rdt1313lv.0.2 Kv=0.120089 kva=25.0 EmergHKVA=37.5 %r=0.532544 XHL=2.4 XLT=2.4 XHT=1.6

New Transformer.tr(r:p1rdt1314-p1rdt1314lv) phases=3 windings=2 %loadloss=1.74408 %Noloadloss=0.6 normhkva=82.5 wdg=1 conn=wye Kv=12.47 kva=75.0 EmergHKVA=112.5 %R=0.87204 bus=p1rdt1314 wdg=2 conn=wye Kv=0.48 kva=75.0 EmergHKVA=112.5 %R=0.87204 bus=p1rdt1314lv XHL=3.2400000000000007

New Transformer.tr(r:p1rdt1425-p1rdt1425lv) phases=1 windings=3 %loadloss=1.248151 %Noloadloss=0.68 normhkva=11.0 wdg=1 conn=wye bus=p1rdt1425.3 Kv=7.199560000000001 kva=10.0 EmergHKVA=15.0 %r=0.41605 wdg=2 conn=wye bus=p1rdt1425lv.1.0 Kv=0.120089 kva=10.0 EmergHKVA=15.0 %r=0.832101 wdg=3 conn=wye bus=p1rdt1425lv.0.2 Kv=0.120089 kva=10.0 EmergHKVA=15.0 %r=0.832101 XHL=1.08 XLT=1.08 XHT=0.72

New Transformer.tr(r:p1rdt1431-p1rdt1431lv) phases=1 windings=3 %loadloss=0.798816 %Noloadloss=0.472 normhkva=27.5 wdg=1 conn=wye bus=p1rdt1431.3 Kv=7.199560000000001 kva=25.0 EmergHKVA=37.5 %r=0.266272 wdg=2 conn=wye bus=p1rdt1431lv.1.0 Kv=0.120089 kva=25.0 EmergHKVA=37.5 %r=0.532544 wdg=3 conn=wye bus=p1rdt1431lv.0.2 Kv=0.120089 kva=25.0 EmergHKVA=37.5 %r=0.532544 XHL=2.4 XLT=2.4 XHT=1.6

New Transformer.tr(r:p1rdt1432-p1rdt1432lv) phases=1 windings=3 %loadloss=0.798816 %Noloadloss=0.472 normhkva=27.5 wdg=1 conn=wye bus=p1rdt1432.3 Kv=7.199560000000001 kva=25.0 EmergHKVA=37.5 %r=0.266272 wdg=2 conn=wye bus=p1rdt1432lv.1.0 Kv=0.120089 kva=25.0 EmergHKVA=37.5 %r=0.532544 wdg=3 conn=wye bus=p1rdt1432lv.0.2 Kv=0.120089 kva=25.0 EmergHKVA=37.5 %r=0.532544 XHL=2.4 XLT=2.4 XHT=1.6

New Transformer.tr(r:p1rdt1433-p1rdt1433lv) phases=1 windings=3 %loadloss=0.798816 %Noloadloss=0.472 normhkva=27.5 wdg=1 conn=wye bus=p1rdt1433.3 Kv=7.199560000000001 kva=25.0 EmergHKVA=37.5 %r=0.266272 wdg=2 conn=wye bus=p1rdt1433lv.1.0 Kv=0.120089 kva=25.0 EmergHKVA=37.5 %r=0.532544 wdg=3 conn=wye bus=p1rdt1433lv.0.2 Kv=0.120089 kva=25.0 EmergHKVA=37.5 %r=0.532544 XHL=2.4 XLT=2.4 XHT=1.6

New Transformer.tr(r:p1rdt1434-p1rdt1434lv) phases=1 windings=3 %loadloss=0.798816 %Noloadloss=0.472 normhkva=27.5 wdg=1 conn=wye bus=p1rdt1434.2 Kv=7.199560000000001 kva=25.0 EmergHKVA=37.5 %r=0.266272 wdg=2 conn=wye bus=p1rdt1434lv.1.0 Kv=0.120089 kva=25.0 EmergHKVA=37.5 %r=0.532544 wdg=3 conn=wye bus=p1rdt1434lv.0.2 Kv=0.120089 kva=25.0 EmergHKVA=37.5 %r=0.532544 XHL=2.4 XLT=2.4 XHT=1.6

New Transformer.tr(r:p1rdt1437-p1rdt1437lv) phases=1 windings=3 %loadloss=0.798816 %Noloadloss=0.37 normhkva=55.0 wdg=1 conn=wye bus=p1rdt1437.3 Kv=7.199560000000001 kva=50.0 EmergHKVA=75.0 %r=0.266272 wdg=2 conn=wye bus=p1rdt1437lv.1.0 Kv=0.120089 kva=50.0 EmergHKVA=75.0 %r=0.532544 wdg=3 conn=wye bus=p1rdt1437lv.0.2 Kv=0.120089 kva=50.0 EmergHKVA=75.0 %r=0.532544 XHL=2.4 XLT=2.4 XHT=1.6

New Transformer.tr(r:p1rdt1526-p1rdt1526lv) phases=1 windings=3 %loadloss=0.798816 %Noloadloss=0.472 normhkva=27.5 wdg=1 conn=wye bus=p1rdt1526.2 Kv=7.199560000000001 kva=25.0 EmergHKVA=37.5 %r=0.266272 wdg=2 conn=wye bus=p1rdt1526lv.1.0 Kv=0.120089 kva=25.0 EmergHKVA=37.5 %r=0.532544 wdg=3 conn=wye bus=p1rdt1526lv.0.2 Kv=0.120089 kva=25.0 EmergHKVA=37.5 %r=0.532544 XHL=2.4 XLT=2.4 XHT=1.6

New Transformer.tr(r:p1rdt1530-p1rdt1530lv) phases=1 windings=3 %loadloss=1.248151 %Noloadloss=0.68 normhkva=11.0 wdg=1 conn=wye bus=p1rdt1530.2 Kv=7.199560000000001 kva=10.0 EmergHKVA=15.0 %r=0.41605 wdg=2 conn=wye bus=p1rdt1530lv.1.0 Kv=0.120089 kva=10.0 EmergHKVA=15.0 %r=0.832101 wdg=3 conn=wye bus=p1rdt1530lv.0.2 Kv=0.120089 kva=10.0 EmergHKVA=15.0 %r=0.832101 XHL=1.08 XLT=1.08 XHT=0.72

New Transformer.tr(r:p1rdt1636-p1rdt1636lv) phases=1 windings=3 %loadloss=1.248151 %Noloadloss=0.68 normhkva=11.0 wdg=1 conn=wye bus=p1rdt1636.2 Kv=7.199560000000001 kva=10.0 EmergHKVA=15.0 %r=0.41605 wdg=2 conn=wye bus=p1rdt1636lv.1.0 Kv=0.120089 kva=10.0 EmergHKVA=15.0 %r=0.832101 wdg=3 conn=wye bus=p1rdt1636lv.0.2 Kv=0.120089 kva=10.0 EmergHKVA=15.0 %r=0.832101 XHL=1.08 XLT=1.08 XHT=0.72

New Transformer.tr(r:p1rdt1637-p1rdt1637lv) phases=1 windings=3 %loadloss=1.248151 %Noloadloss=0.68 normhkva=11.0 wdg=1 conn=wye bus=p1rdt1637.3 Kv=7.199560000000001 kva=10.0 EmergHKVA=15.0 %r=0.41605 wdg=2 conn=wye bus=p1rdt1637lv.1.0 Kv=0.120089 kva=10.0 EmergHKVA=15.0 %r=0.832101 wdg=3 conn=wye bus=p1rdt1637lv.0.2 Kv=0.120089 kva=10.0 EmergHKVA=15.0 %r=0.832101 XHL=1.08 XLT=1.08 XHT=0.72

New Transformer.tr(r:p1rdt1639-p1rdt1639lv) phases=1 windings=3 %loadloss=0.798816 %Noloadloss=0.472 normhkva=27.5 wdg=1 conn=wye bus=p1rdt1639.3 Kv=7.199560000000001 kva=25.0 EmergHKVA=37.5 %r=0.266272 wdg=2 conn=wye bus=p1rdt1639lv.1.0 Kv=0.120089 kva=25.0 EmergHKVA=37.5 %r=0.532544 wdg=3 conn=wye bus=p1rdt1639lv.0.2 Kv=0.120089 kva=25.0 EmergHKVA=37.5 %r=0.532544 XHL=2.4 XLT=2.4 XHT=1.6

New Transformer.tr(r:p1rdt1640-p1rdt1640lv) phases=1 windings=3 %loadloss=0.798816 %Noloadloss=0.472 normhkva=27.5 wdg=1 conn=wye bus=p1rdt1640.2 Kv=7.199560000000001 kva=25.0 EmergHKVA=37.5 %r=0.266272 wdg=2 conn=wye bus=p1rdt1640lv.1.0 Kv=0.120089 kva=25.0 EmergHKVA=37.5 %r=0.532544 wdg=3 conn=wye bus=p1rdt1640lv.0.2 Kv=0.120089 kva=25.0 EmergHKVA=37.5 %r=0.532544 XHL=2.4 XLT=2.4 XHT=1.6

New Transformer.tr(r:p1rdt1751-p1rdt1751lv) phases=1 windings=3 %loadloss=0.798816 %Noloadloss=0.37 normhkva=55.0 wdg=1 conn=wye bus=p1rdt1751.3 Kv=7.199560000000001 kva=50.0 EmergHKVA=75.0 %r=0.266272 wdg=2 conn=wye bus=p1rdt1751lv.1.0 Kv=0.120089 kva=50.0 EmergHKVA=75.0 %r=0.532544 wdg=3 conn=wye bus=p1rdt1751lv.0.2 Kv=0.120089 kva=50.0 EmergHKVA=75.0 %r=0.532544 XHL=2.4 XLT=2.4 XHT=1.6

New Transformer.tr(r:p1rdt1753-p1rdt1753lv) phases=1 windings=3 %loadloss=0.798816 %Noloadloss=0.472 normhkva=27.5 wdg=1 conn=wye bus=p1rdt1753.3 Kv=7.199560000000001 kva=25.0 EmergHKVA=37.5 %r=0.266272 wdg=2 conn=wye bus=p1rdt1753lv.1.0 Kv=0.120089 kva=25.0 EmergHKVA=37.5 %r=0.532544 wdg=3 conn=wye bus=p1rdt1753lv.0.2 Kv=0.120089 kva=25.0 EmergHKVA=37.5 %r=0.532544 XHL=2.4 XLT=2.4 XHT=1.6

New Transformer.tr(r:p1rdt1754-p1rdt1754lv) phases=1 windings=3 %loadloss=0.798816 %Noloadloss=0.37 normhkva=55.0 wdg=1 conn=wye bus=p1rdt1754.1 Kv=7.199560000000001 kva=50.0 EmergHKVA=75.0 %r=0.266272 wdg=2 conn=wye bus=p1rdt1754lv.1.0 Kv=0.120089 kva=50.0 EmergHKVA=75.0 %r=0.532544 wdg=3 conn=wye bus=p1rdt1754lv.0.2 Kv=0.120089 kva=50.0 EmergHKVA=75.0 %r=0.532544 XHL=2.4 XLT=2.4 XHT=1.6

New Transformer.tr(r:p1rdt1755-p1rdt1755lv) phases=1 windings=3 %loadloss=0.798816 %Noloadloss=0.472 normhkva=27.5 wdg=1 conn=wye bus=p1rdt1755.2 Kv=7.199560000000001 kva=25.0 EmergHKVA=37.5 %r=0.266272 wdg=2 conn=wye bus=p1rdt1755lv.1.0 Kv=0.120089 kva=25.0 EmergHKVA=37.5 %r=0.532544 wdg=3 conn=wye bus=p1rdt1755lv.0.2 Kv=0.120089 kva=25.0 EmergHKVA=37.5 %r=0.532544 XHL=2.4 XLT=2.4 XHT=1.6

New Transformer.tr(r:p1rdt1756-p1rdt1756lv) phases=1 windings=3 %loadloss=0.798816 %Noloadloss=0.472 normhkva=27.5 wdg=1 conn=wye bus=p1rdt1756.1 Kv=7.199560000000001 kva=25.0 EmergHKVA=37.5 %r=0.266272 wdg=2 conn=wye bus=p1rdt1756lv.1.0 Kv=0.120089 kva=25.0 EmergHKVA=37.5 %r=0.532544 wdg=3 conn=wye bus=p1rdt1756lv.0.2 Kv=0.120089 kva=25.0 EmergHKVA=37.5 %r=0.532544 XHL=2.4 XLT=2.4 XHT=1.6

New Transformer.tr(r:p1rdt1865-p1rdt1865lv) phases=1 windings=3 %loadloss=0.798816 %Noloadloss=0.37 normhkva=55.0 wdg=1 conn=wye bus=p1rdt1865.2 Kv=7.199560000000001 kva=50.0 EmergHKVA=75.0 %r=0.266272 wdg=2 conn=wye bus=p1rdt1865lv.1.0 Kv=0.120089 kva=50.0 EmergHKVA=75.0 %r=0.532544 wdg=3 conn=wye bus=p1rdt1865lv.0.2 Kv=0.120089 kva=50.0 EmergHKVA=75.0 %r=0.532544 XHL=2.4 XLT=2.4 XHT=1.6

New Transformer.tr(r:p1rdt1972-p1rdt1972lv) phases=1 windings=3 %loadloss=0.798816 %Noloadloss=0.472 normhkva=27.5 wdg=1 conn=wye bus=p1rdt1972.1 Kv=7.199560000000001 kva=25.0 EmergHKVA=37.5 %r=0.266272 wdg=2 conn=wye bus=p1rdt1972lv.1.0 Kv=0.120089 kva=25.0 EmergHKVA=37.5 %r=0.532544 wdg=3 conn=wye bus=p1rdt1972lv.0.2 Kv=0.120089 kva=25.0 EmergHKVA=37.5 %r=0.532544 XHL=2.4 XLT=2.4 XHT=1.6

New Transformer.tr(r:p1rdt2101-p1rdt2101lv) phases=1 windings=3 %loadloss=0.798816 %Noloadloss=0.472 normhkva=27.5 wdg=1 conn=wye bus=p1rdt2101.2 Kv=7.199560000000001 kva=25.0 EmergHKVA=37.5 %r=0.266272 wdg=2 conn=wye bus=p1rdt2101lv.1.0 Kv=0.120089 kva=25.0 EmergHKVA=37.5 %r=0.532544 wdg=3 conn=wye bus=p1rdt2101lv.0.2 Kv=0.120089 kva=25.0 EmergHKVA=37.5 %r=0.532544 XHL=2.4 XLT=2.4 XHT=1.6

New Transformer.tr(r:p1rdt2102-p1rdt2102lv) phases=1 windings=3 %loadloss=0.798816 %Noloadloss=0.472 normhkva=27.5 wdg=1 conn=wye bus=p1rdt2102.3 Kv=7.199560000000001 kva=25.0 EmergHKVA=37.5 %r=0.266272 wdg=2 conn=wye bus=p1rdt2102lv.1.0 Kv=0.120089 kva=25.0 EmergHKVA=37.5 %r=0.532544 wdg=3 conn=wye bus=p1rdt2102lv.0.2 Kv=0.120089 kva=25.0 EmergHKVA=37.5 %r=0.532544 XHL=2.4 XLT=2.4 XHT=1.6

New Transformer.tr(r:p1rdt2103-p1rdt2103lv) phases=1 windings=3 %loadloss=0.798816 %Noloadloss=0.37 normhkva=55.0 wdg=1 conn=wye bus=p1rdt2103.2 Kv=7.199560000000001 kva=50.0 EmergHKVA=75.0 %r=0.266272 wdg=2 conn=wye bus=p1rdt2103lv.1.0 Kv=0.120089 kva=50.0 EmergHKVA=75.0 %r=0.532544 wdg=3 conn=wye bus=p1rdt2103lv.0.2 Kv=0.120089 kva=50.0 EmergHKVA=75.0 %r=0.532544 XHL=2.4 XLT=2.4 XHT=1.6

New Transformer.tr(r:p1rdt2211-p1rdt2211lv) phases=1 windings=3 %loadloss=1.248151 %Noloadloss=0.68 normhkva=11.0 wdg=1 conn=wye bus=p1rdt2211.3 Kv=7.199560000000001 kva=10.0 EmergHKVA=15.0 %r=0.41605 wdg=2 conn=wye bus=p1rdt2211lv.1.0 Kv=0.120089 kva=10.0 EmergHKVA=15.0 %r=0.832101 wdg=3 conn=wye bus=p1rdt2211lv.0.2 Kv=0.120089 kva=10.0 EmergHKVA=15.0 %r=0.832101 XHL=1.08 XLT=1.08 XHT=0.72

New Transformer.tr(r:p1rdt2212-p1rdt2212lv) phases=1 windings=3 %loadloss=0.798816 %Noloadloss=0.37 normhkva=55.0 wdg=1 conn=wye bus=p1rdt2212.3 Kv=7.199560000000001 kva=50.0 EmergHKVA=75.0 %r=0.266272 wdg=2 conn=wye bus=p1rdt2212lv.1.0 Kv=0.120089 kva=50.0 EmergHKVA=75.0 %r=0.532544 wdg=3 conn=wye bus=p1rdt2212lv.0.2 Kv=0.120089 kva=50.0 EmergHKVA=75.0 %r=0.532544 XHL=2.4 XLT=2.4 XHT=1.6

New Transformer.tr(r:p1rdt2214-p1rdt2214lv) phases=1 windings=3 %loadloss=0.798816 %Noloadloss=0.472 normhkva=27.5 wdg=1 conn=wye bus=p1rdt2214.2 Kv=7.199560000000001 kva=25.0 EmergHKVA=37.5 %r=0.266272 wdg=2 conn=wye bus=p1rdt2214lv.1.0 Kv=0.120089 kva=25.0 EmergHKVA=37.5 %r=0.532544 wdg=3 conn=wye bus=p1rdt2214lv.0.2 Kv=0.120089 kva=25.0 EmergHKVA=37.5 %r=0.532544 XHL=2.4 XLT=2.4 XHT=1.6

New Transformer.tr(r:p1rdt2315-p1rdt2315lv) phases=1 windings=3 %loadloss=0.798816 %Noloadloss=0.37 normhkva=55.0 wdg=1 conn=wye bus=p1rdt2315.3 Kv=7.199560000000001 kva=50.0 EmergHKVA=75.0 %r=0.266272 wdg=2 conn=wye bus=p1rdt2315lv.1.0 Kv=0.120089 kva=50.0 EmergHKVA=75.0 %r=0.532544 wdg=3 conn=wye bus=p1rdt2315lv.0.2 Kv=0.120089 kva=50.0 EmergHKVA=75.0 %r=0.532544 XHL=2.4 XLT=2.4 XHT=1.6

New Transformer.tr(r:p1rdt2316-p1rdt2316lv) phases=1 windings=3 %loadloss=1.248151 %Noloadloss=0.68 normhkva=11.0 wdg=1 conn=wye bus=p1rdt2316.1 Kv=7.199560000000001 kva=10.0 EmergHKVA=15.0 %r=0.41605 wdg=2 conn=wye bus=p1rdt2316lv.1.0 Kv=0.120089 kva=10.0 EmergHKVA=15.0 %r=0.832101 wdg=3 conn=wye bus=p1rdt2316lv.0.2 Kv=0.120089 kva=10.0 EmergHKVA=15.0 %r=0.832101 XHL=1.08 XLT=1.08 XHT=0.72

New Transformer.tr(r:p1rdt2317-p1rdt2317lv) phases=1 windings=3 %loadloss=0.798816 %Noloadloss=0.472 normhkva=27.5 wdg=1 conn=wye bus=p1rdt2317.3 Kv=7.199560000000001 kva=25.0 EmergHKVA=37.5 %r=0.266272 wdg=2 conn=wye bus=p1rdt2317lv.1.0 Kv=0.120089 kva=25.0 EmergHKVA=37.5 %r=0.532544 wdg=3 conn=wye bus=p1rdt2317lv.0.2 Kv=0.120089 kva=25.0 EmergHKVA=37.5 %r=0.532544 XHL=2.4 XLT=2.4 XHT=1.6

New Transformer.tr(r:p1rdt2319-p1rdt2319lv) phases=1 windings=3 %loadloss=0.798816 %Noloadloss=0.472 normhkva=27.5 wdg=1 conn=wye bus=p1rdt2319.1 Kv=7.199560000000001 kva=25.0 EmergHKVA=37.5 %r=0.266272 wdg=2 conn=wye bus=p1rdt2319lv.1.0 Kv=0.120089 kva=25.0 EmergHKVA=37.5 %r=0.532544 wdg=3 conn=wye bus=p1rdt2319lv.0.2 Kv=0.120089 kva=25.0 EmergHKVA=37.5 %r=0.532544 XHL=2.4 XLT=2.4 XHT=1.6

New Transformer.tr(r:p1rdt2421-p1rdt2421lv) phases=1 windings=3 %loadloss=0.798816 %Noloadloss=0.472 normhkva=27.5 wdg=1 conn=wye bus=p1rdt2421.2 Kv=7.199560000000001 kva=25.0 EmergHKVA=37.5 %r=0.266272 wdg=2 conn=wye bus=p1rdt2421lv.1.0 Kv=0.120089 kva=25.0 EmergHKVA=37.5 %r=0.532544 wdg=3 conn=wye bus=p1rdt2421lv.0.2 Kv=0.120089 kva=25.0 EmergHKVA=37.5 %r=0.532544 XHL=2.4 XLT=2.4 XHT=1.6

New Transformer.tr(r:p1rdt2422-p1rdt2422lv) phases=1 windings=3 %loadloss=0.798816 %Noloadloss=0.37 normhkva=55.0 wdg=1 conn=wye bus=p1rdt2422.3 Kv=7.199560000000001 kva=50.0 EmergHKVA=75.0 %r=0.266272 wdg=2 conn=wye bus=p1rdt2422lv.1.0 Kv=0.120089 kva=50.0 EmergHKVA=75.0 %r=0.532544 wdg=3 conn=wye bus=p1rdt2422lv.0.2 Kv=0.120089 kva=50.0 EmergHKVA=75.0 %r=0.532544 XHL=2.4 XLT=2.4 XHT=1.6

New Transformer.tr(r:p1rdt2423-p1rdt2423lv) phases=1 windings=3 %loadloss=1.248151 %Noloadloss=0.68 normhkva=11.0 wdg=1 conn=wye bus=p1rdt2423.1 Kv=7.199560000000001 kva=10.0 EmergHKVA=15.0 %r=0.41605 wdg=2 conn=wye bus=p1rdt2423lv.1.0 Kv=0.120089 kva=10.0 EmergHKVA=15.0 %r=0.832101 wdg=3 conn=wye bus=p1rdt2423lv.0.2 Kv=0.120089 kva=10.0 EmergHKVA=15.0 %r=0.832101 XHL=1.08 XLT=1.08 XHT=0.72

New Transformer.tr(r:p1rdt2426-p1rdt2426lv) phases=1 windings=3 %loadloss=0.798816 %Noloadloss=0.472 normhkva=27.5 wdg=1 conn=wye bus=p1rdt2426.2 Kv=7.199560000000001 kva=25.0 EmergHKVA=37.5 %r=0.266272 wdg=2 conn=wye bus=p1rdt2426lv.1.0 Kv=0.120089 kva=25.0 EmergHKVA=37.5 %r=0.532544 wdg=3 conn=wye bus=p1rdt2426lv.0.2 Kv=0.120089 kva=25.0 EmergHKVA=37.5 %r=0.532544 XHL=2.4 XLT=2.4 XHT=1.6

New Transformer.tr(r:p1rdt2427-p1rdt2427lv) phases=1 windings=3 %loadloss=0.798816 %Noloadloss=0.472 normhkva=27.5 wdg=1 conn=wye bus=p1rdt2427.2 Kv=7.199560000000001 kva=25.0 EmergHKVA=37.5 %r=0.266272 wdg=2 conn=wye bus=p1rdt2427lv.1.0 Kv=0.120089 kva=25.0 EmergHKVA=37.5 %r=0.532544 wdg=3 conn=wye bus=p1rdt2427lv.0.2 Kv=0.120089 kva=25.0 EmergHKVA=37.5 %r=0.532544 XHL=2.4 XLT=2.4 XHT=1.6

New Transformer.tr(r:p1rdt2429-p1rdt2429lv) phases=1 windings=3 %loadloss=0.798816 %Noloadloss=0.37 normhkva=55.0 wdg=1 conn=wye bus=p1rdt2429.2 Kv=7.199560000000001 kva=50.0 EmergHKVA=75.0 %r=0.266272 wdg=2 conn=wye bus=p1rdt2429lv.1.0 Kv=0.120089 kva=50.0 EmergHKVA=75.0 %r=0.532544 wdg=3 conn=wye bus=p1rdt2429lv.0.2 Kv=0.120089 kva=50.0 EmergHKVA=75.0 %r=0.532544 XHL=2.4 XLT=2.4 XHT=1.6

New Transformer.tr(r:p1rdt2541-p1rdt2541lv) phases=1 windings=3 %loadloss=0.798816 %Noloadloss=0.472 normhkva=27.5 wdg=1 conn=wye bus=p1rdt2541.2 Kv=7.199560000000001 kva=25.0 EmergHKVA=37.5 %r=0.266272 wdg=2 conn=wye bus=p1rdt2541lv.1.0 Kv=0.120089 kva=25.0 EmergHKVA=37.5 %r=0.532544 wdg=3 conn=wye bus=p1rdt2541lv.0.2 Kv=0.120089 kva=25.0 EmergHKVA=37.5 %r=0.532544 XHL=2.4 XLT=2.4 XHT=1.6

New Transformer.tr(r:p1rdt2542-p1rdt2542lv) phases=1 windings=3 %loadloss=0.798816 %Noloadloss=0.37 normhkva=55.0 wdg=1 conn=wye bus=p1rdt2542.2 Kv=7.199560000000001 kva=50.0 EmergHKVA=75.0 %r=0.266272 wdg=2 conn=wye bus=p1rdt2542lv.1.0 Kv=0.120089 kva=50.0 EmergHKVA=75.0 %r=0.532544 wdg=3 conn=wye bus=p1rdt2542lv.0.2 Kv=0.120089 kva=50.0 EmergHKVA=75.0 %r=0.532544 XHL=2.4 XLT=2.4 XHT=1.6

New Transformer.tr(r:p1rdt2543-p1rdt2543lv) phases=1 windings=3 %loadloss=0.798816 %Noloadloss=0.472 normhkva=27.5 wdg=1 conn=wye bus=p1rdt2543.1 Kv=7.199560000000001 kva=25.0 EmergHKVA=37.5 %r=0.266272 wdg=2 conn=wye bus=p1rdt2543lv.1.0 Kv=0.120089 kva=25.0 EmergHKVA=37.5 %r=0.532544 wdg=3 conn=wye bus=p1rdt2543lv.0.2 Kv=0.120089 kva=25.0 EmergHKVA=37.5 %r=0.532544 XHL=2.4 XLT=2.4 XHT=1.6

New Transformer.tr(r:p1rdt2626-p1rdt2626lv) phases=3 windings=2 %loadloss=1.74408 %Noloadloss=0.6 normhkva=82.5 wdg=1 conn=wye Kv=12.47 kva=75.0 EmergHKVA=112.5 %R=0.87204 bus=p1rdt2626 wdg=2 conn=wye Kv=0.48 kva=75.0 EmergHKVA=112.5 %R=0.87204 bus=p1rdt2626lv XHL=3.2400000000000007

New Transformer.tr(r:p1rdt2627-p1rdt2627lv) phases=1 windings=3 %loadloss=0.798816 %Noloadloss=0.472 normhkva=27.5 wdg=1 conn=wye bus=p1rdt2627.3 Kv=7.199560000000001 kva=25.0 EmergHKVA=37.5 %r=0.266272 wdg=2 conn=wye bus=p1rdt2627lv.1.0 Kv=0.120089 kva=25.0 EmergHKVA=37.5 %r=0.532544 wdg=3 conn=wye bus=p1rdt2627lv.0.2 Kv=0.120089 kva=25.0 EmergHKVA=37.5 %r=0.532544 XHL=2.4 XLT=2.4 XHT=1.6

New Transformer.tr(r:p1rdt2628-p1rdt2628lv) phases=1 windings=3 %loadloss=0.798816 %Noloadloss=0.472 normhkva=27.5 wdg=1 conn=wye bus=p1rdt2628.1 Kv=7.199560000000001 kva=25.0 EmergHKVA=37.5 %r=0.266272 wdg=2 conn=wye bus=p1rdt2628lv.1.0 Kv=0.120089 kva=25.0 EmergHKVA=37.5 %r=0.532544 wdg=3 conn=wye bus=p1rdt2628lv.0.2 Kv=0.120089 kva=25.0 EmergHKVA=37.5 %r=0.532544 XHL=2.4 XLT=2.4 XHT=1.6

New Transformer.tr(r:p1rdt2629-p1rdt2629lv) phases=1 windings=3 %loadloss=0.798816 %Noloadloss=0.472 normhkva=27.5 wdg=1 conn=wye bus=p1rdt2629.3 Kv=7.199560000000001 kva=25.0 EmergHKVA=37.5 %r=0.266272 wdg=2 conn=wye bus=p1rdt2629lv.1.0 Kv=0.120089 kva=25.0 EmergHKVA=37.5 %r=0.532544 wdg=3 conn=wye bus=p1rdt2629lv.0.2 Kv=0.120089 kva=25.0 EmergHKVA=37.5 %r=0.532544 XHL=2.4 XLT=2.4 XHT=1.6

New Transformer.tr(r:p1rdt2728-p1rdt2728lv) phases=1 windings=3 %loadloss=0.798816 %Noloadloss=0.472 normhkva=27.5 wdg=1 conn=wye bus=p1rdt2728.2 Kv=7.199560000000001 kva=25.0 EmergHKVA=37.5 %r=0.266272 wdg=2 conn=wye bus=p1rdt2728lv.1.0 Kv=0.120089 kva=25.0 EmergHKVA=37.5 %r=0.532544 wdg=3 conn=wye bus=p1rdt2728lv.0.2 Kv=0.120089 kva=25.0 EmergHKVA=37.5 %r=0.532544 XHL=2.4 XLT=2.4 XHT=1.6
