New Line.l(r:p1udm2367-p1ulv652) Units=km Length=0.0196968 bus1=p1udm2367.1.2 bus2=p1ulv652.1.2 switch=n enabled=y phases=2 Linecode=1P_UG_AL_1/0_Brenau_0_416_0_2_2_2_2

New Line.l(r:p1udm2367-p1ulv25302) Units=km Length=0.0165723 bus1=p1udm2367.1.2 bus2=p1ulv25302.1.2 switch=n enabled=y phases=2 Linecode=1P_UG_AL_1/0_Brenau_0_416_0_2_2_2_2

New Line.l(r:p1udm2367-p1udt643lv) Units=km Length=0.009556500000000002 bus1=p1udt643lv.1.2 bus2=p1udm2367.1.2 switch=n enabled=y phases=2 Linecode=1P_UG_AL_4/0_Sweetbriar_0_416_0_2_2_2_2

New Line.l(r:p1udm2368-p1ulv15063) Units=km Length=0.0168543 bus1=p1udm2368.1.2 bus2=p1ulv15063.1.2 switch=n enabled=y phases=2 Linecode=1P_UG_AL_1/0_Brenau_0_416_0_2_2_2_2

New Line.l(r:p1udm2368-p1ulv22114) Units=km Length=0.017333 bus1=p1udm2368.1.2 bus2=p1ulv22114.1.2 switch=n enabled=y phases=2 Linecode=1P_UG_AL_1/0_Brenau_0_416_0_2_2_2_2

New Line.l(r:p1udm2368-p1udt643lv) Units=km Length=0.009556500000000002 bus1=p1udt643lv.1.2 bus2=p1udm2368.1.2 switch=n enabled=y phases=2 Linecode=1P_UG_AL_4/0_Sweetbriar_0_416_0_2_2_2_2

New Line.l(r:p1udm2371-p1ulv653) Units=km Length=0.0119793 bus1=p1udm2371.1.2 bus2=p1ulv653.1.2 switch=n enabled=y phases=2 Linecode=1P_UG_AL_1/0_Brenau_0_416_0_2_2_2_2

New Line.l(r:p1udm2371-p1ulv19605) Units=km Length=0.0124305 bus1=p1udm2371.1.2 bus2=p1ulv19605.1.2 switch=n enabled=y phases=2 Linecode=1P_UG_AL_1/0_Brenau_0_416_0_2_2_2_2

New Line.l(r:p1udm2375-p1ulv25304) Units=km Length=0.015241100000000002 bus1=p1udm2375.1.2 bus2=p1ulv25304.1.2 switch=n enabled=y phases=2 Linecode=1P_UG_AL_1/0_Brenau_0_416_0_2_2_2_2

New Line.l(r:p1udm2371-p1udm2375) Units=km Length=0.00831558 bus1=p1udm2371.1.2 bus2=p1udm2375.1.2 switch=n enabled=y phases=2 Linecode=1P_UG_AL_1/0_Brenau_0_416_0_2_2_2_2

New Line.l(r:p1udm2371-p1udt644lv) Units=km Length=0.00830557 bus1=p1udt644lv.1.2 bus2=p1udm2371.1.2 switch=n enabled=y phases=2 Linecode=1P_UG_AL_4/0_Sweetbriar_0_416_0_2_2_2_2

New Line.l(r:p1udm2374-p1ulv24677) Units=km Length=0.0120398 bus1=p1udm2374.1.2 bus2=p1ulv24677.1.2 switch=n enabled=y phases=2 Linecode=1P_UG_AL_1/0_Brenau_0_416_0_2_2_2_2

New Line.l(r:p1udm2372-p1ulv8220) Units=km Length=0.014831900000000002 bus1=p1udm2372.1.2 bus2=p1ulv8220.1.2 switch=n enabled=y phases=2 Linecode=1P_UG_AL_1/0_Brenau_0_416_0_2_2_2_2

New Line.l(r:p1udm2376-p1ulv27873) Units=km Length=0.021615500000000003 bus1=p1udm2376.1.2 bus2=p1ulv27873.1.2 switch=n enabled=y phases=2 Linecode=1P_UG_AL_1/0_Brenau_0_416_0_2_2_2_2

New Line.l(r:p1udm2372-p1udm2376) Units=km Length=0.0496787 bus1=p1udm2372.1.2 bus2=p1udm2376.1.2 switch=n enabled=y phases=2 Linecode=1P_UG_AL_1/0_Brenau_0_416_0_2_2_2_2

New Line.l(r:p1udm2372-p1udm2374) Units=km Length=0.00830154 bus1=p1udm2374.1.2 bus2=p1udm2372.1.2 switch=n enabled=y phases=2 Linecode=1P_UG_AL_4/0_Sweetbriar_0_416_0_2_2_2_2

New Line.l(r:p1udm2374-p1udt644lv) Units=km Length=0.00830557 bus1=p1udt644lv.1.2 bus2=p1udm2374.1.2 switch=n enabled=y phases=2 Linecode=1P_UG_AL_4/0_Sweetbriar_0_416_0_2_2_2_2

New Line.l(r:p1udt645lv-p1ulv654) Units=km Length=0.0132819 bus1=p1udt645lv.1.2 bus2=p1ulv654.1.2 switch=n enabled=y phases=2 Linecode=1P_UG_AL_4/0_Sweetbriar_0_416_0_2_2_2_2

New Line.l(r:p1udm2379-p1ulv57380) Units=km Length=0.012026300000000002 bus1=p1udm2379.1.2 bus2=p1ulv57380.1.2 switch=n enabled=y phases=2 Linecode=1P_UG_AL_1/0_Brenau_0_416_0_2_2_2_2

New Line.l(r:p1udm2379-p1udt645lv) Units=km Length=0.0612728 bus1=p1udt645lv.1.2 bus2=p1udm2379.1.2 switch=n enabled=y phases=2 Linecode=1P_UG_AL_1/0_Brenau_0_416_0_2_2_2_2

New Line.l(r:p1udm2380-p1ulv64198) Units=km Length=0.013748300000000001 bus1=p1udm2380.1.2 bus2=p1ulv64198.1.2 switch=n enabled=y phases=2 Linecode=1P_UG_AL_4/0_Sweetbriar_0_416_0_2_2_2_2

New Line.l(r:p1udm2378-p1ulv11344) Units=km Length=0.0126001 bus1=p1udm2378.1.2 bus2=p1ulv11344.1.2 switch=n enabled=y phases=2 Linecode=1P_UG_AL_1/0_Brenau_0_416_0_2_2_2_2

New Line.l(r:p1udm2378-p1udm2380) Units=km Length=0.0160984 bus1=p1udm2380.1.2 bus2=p1udm2378.1.2 switch=n enabled=y phases=2 Linecode=1P_UG_AL_1/0_Brenau_0_416_0_2_2_2_2

New Line.l(r:p1udm2380-p1udt645lv) Units=km Length=0.00688145 bus1=p1udt645lv.1.2 bus2=p1udm2380.1.2 switch=n enabled=y phases=2 Linecode=1P_UG_AL_4/0_Sweetbriar_0_416_0_2_2_2_2

New Line.l(r:p1udt1214lv-p1ulv46236) Units=km Length=0.013725 bus1=p1udt1214lv.1.2 bus2=p1ulv46236.1.2 switch=n enabled=y phases=2 Linecode=1P_UG_AL_1/0_Brenau_0_416_0_2_2_2_2

New Line.l(r:p1udm4474-p1ulv1248) Units=km Length=0.0177103 bus1=p1udm4474.1.2 bus2=p1ulv1248.1.2 switch=n enabled=y phases=2 Linecode=1P_UG_AL_1/0_Brenau_0_416_0_2_2_2_2

New Line.l(r:p1udm4478-p1ulv64809) Units=km Length=0.0176861 bus1=p1udm4478.1.2 bus2=p1ulv64809.1.2 switch=n enabled=y phases=2 Linecode=1P_UG_AL_1/0_Brenau_0_416_0_2_2_2_2

New Line.l(r:p1udm4474-p1udm4478) Units=km Length=0.07952 bus1=p1udm4474.1.2 bus2=p1udm4478.1.2 switch=n enabled=y phases=2 Linecode=1P_UG_AL_1/0_Brenau_0_416_0_2_2_2_2

New Line.l(r:p1udm4474-p1udt1214lv) Units=km Length=0.006758710000000001 bus1=p1udt1214lv.1.2 bus2=p1udm4474.1.2 switch=n enabled=y phases=2 Linecode=1P_UG_AL_4/0_Sweetbriar_0_416_0_2_2_2_2

New Line.l(r:p1udm4477-p1ulv57377) Units=km Length=0.0159905 bus1=p1udm4477.1.2 bus2=p1ulv57377.1.2 switch=n enabled=y phases=2 Linecode=1P_UG_AL_1/0_Brenau_0_416_0_2_2_2_2

New Line.l(r:p1udm4475-p1ulv44296) Units=km Length=0.0167233 bus1=p1udm4475.1.2 bus2=p1ulv44296.1.2 switch=n enabled=y phases=2 Linecode=1P_UG_AL_1/0_Brenau_0_416_0_2_2_2_2

New Line.l(r:p1udm4475-p1udm4477) Units=km Length=0.00900121 bus1=p1udm4477.1.2 bus2=p1udm4475.1.2 switch=n enabled=y phases=2 Linecode=1P_UG_AL_1/0_Brenau_0_416_0_2_2_2_2

New Line.l(r:p1udm4477-p1udt1214lv) Units=km Length=0.00675992 bus1=p1udt1214lv.1.2 bus2=p1udm4477.1.2 switch=n enabled=y phases=2 Linecode=1P_UG_AL_4/0_Sweetbriar_0_416_0_2_2_2_2

New Line.l(r:p1udt1215lv-p1ulv1249) Units=km Length=0.0158466 bus1=p1udt1215lv.1.2 bus2=p1ulv1249.1.2 switch=n enabled=y phases=2 Linecode=1P_OH_AL_2/0_Rucina_0_416_0_2_2_2_2

New Line.l(r:p1udm6657-p1ulv1924) Units=km Length=0.0152554 bus1=p1udm6657.1.2 bus2=p1ulv1924.1.2 switch=n enabled=y phases=2 Linecode=1P_UG_AL_1/0_Brenau_0_416_0_2_2_2_2

New Line.l(r:p1udm6657-p1udt1835lv) Units=km Length=0.0147918 bus1=p1udt1835lv.1.2 bus2=p1udm6657.1.2 switch=n enabled=y phases=2 Linecode=1P_UG_AL_1/0_Brenau_0_416_0_2_2_2_2

New Line.l(r:p1udm6659-p1ulv61657) Units=km Length=0.014826200000000001 bus1=p1udm6659.1.2 bus2=p1ulv61657.1.2 switch=n enabled=y phases=2 Linecode=1P_UG_AL_1/0_Brenau_0_416_0_2_2_2_2

New Line.l(r:p1udm6659-p1udt1835lv) Units=km Length=0.0140669 bus1=p1udt1835lv.1.2 bus2=p1udm6659.1.2 switch=n enabled=y phases=2 Linecode=1P_UG_AL_1/0_Brenau_0_416_0_2_2_2_2

New Line.l(r:p1udm6660-p1ulv63537) Units=km Length=0.0152432 bus1=p1udm6660.1.2 bus2=p1ulv63537.1.2 switch=n enabled=y phases=2 Linecode=1P_UG_AL_1/0_Brenau_0_416_0_2_2_2_2

New Line.l(r:p1udm6658-p1ulv26565) Units=km Length=0.0149164 bus1=p1udm6658.1.2 bus2=p1ulv26565.1.2 switch=n enabled=y phases=2 Linecode=1P_UG_AL_1/0_Brenau_0_416_0_2_2_2_2

New Line.l(r:p1udm6658-p1udm6660) Units=km Length=0.00779391 bus1=p1udm6660.1.2 bus2=p1udm6658.1.2 switch=n enabled=y phases=2 Linecode=1P_UG_AL_1/0_Brenau_0_416_0_2_2_2_2

New Line.l(r:p1udm6660-p1udt1835lv) Units=km Length=0.00779391 bus1=p1udt1835lv.1.2 bus2=p1udm6660.1.2 switch=n enabled=y phases=2 Linecode=1P_UG_AL_4/0_Sweetbriar_0_416_0_2_2_2_2

New Line.l(r:p1udt1836lv-p1ulv1925) Units=km Length=0.0138637 bus1=p1udt1836lv.1.2 bus2=p1ulv1925.1.2 switch=n enabled=y phases=2 Linecode=1P_UG_AL_1/0_Brenau_0_416_0_2_2_2_2

New Line.l(r:p1udm6662-p1ulv32917) Units=km Length=0.0166041 bus1=p1udm6662.1.2 bus2=p1ulv32917.1.2 switch=n enabled=y phases=2 Linecode=1P_UG_AL_1/0_Brenau_0_416_0_2_2_2_2

New Line.l(r:p1udm6662-p1udt1836lv) Units=km Length=0.0190469 bus1=p1udt1836lv.1.2 bus2=p1udm6662.1.2 switch=n enabled=y phases=2 Linecode=1P_UG_AL_1/0_Brenau_0_416_0_2_2_2_2

New Line.l(r:p1udm6665-p1ulv64194) Units=km Length=0.017303900000000004 bus1=p1udm6665.1.2 bus2=p1ulv64194.1.2 switch=n enabled=y phases=2 Linecode=1P_UG_AL_1/0_Brenau_0_416_0_2_2_2_2

New Line.l(r:p1udm6663-p1ulv46849) Units=km Length=0.014291 bus1=p1udm6663.1.2 bus2=p1ulv46849.1.2 switch=n enabled=y phases=2 Linecode=1P_UG_AL_1/0_Brenau_0_416_0_2_2_2_2

New Line.l(r:p1udm6663-p1ulv59160) Units=km Length=0.0171664 bus1=p1udm6663.1.2 bus2=p1ulv59160.1.2 switch=n enabled=y phases=2 Linecode=1P_UG_AL_1/0_Brenau_0_416_0_2_2_2_2

New Line.l(r:p1udm6663-p1udm6665) Units=km Length=0.00686039 bus1=p1udm6665.1.2 bus2=p1udm6663.1.2 switch=n enabled=y phases=2 Linecode=1P_UG_AL_4/0_Sweetbriar_0_416_0_2_2_2_2

New Line.l(r:p1udm6665-p1udt1836lv) Units=km Length=0.00952656 bus1=p1udt1836lv.1.2 bus2=p1udm6665.1.2 switch=n enabled=y phases=2 Linecode=1P_UG_AL_4/0_Sweetbriar_0_416_0_2_2_2_2

New Line.l(r:p1udt1837lv-p1ulv54308) Units=km Length=0.0176023 bus1=p1udt1837lv.1.2 bus2=p1ulv54308.1.2 switch=n enabled=y phases=2 Linecode=1P_UG_AL_1/0_Brenau_0_416_0_2_2_2_2

New Line.l(r:p1udm6666-p1ulv1926) Units=km Length=0.0140228 bus1=p1udm6666.1.2 bus2=p1ulv1926.1.2 switch=n enabled=y phases=2 Linecode=1P_UG_AL_1/0_Brenau_0_416_0_2_2_2_2

New Line.l(r:p1udm6670-p1ulv59771) Units=km Length=0.017264 bus1=p1udm6670.1.2 bus2=p1ulv59771.1.2 switch=n enabled=y phases=2 Linecode=1P_UG_AL_1/0_Brenau_0_416_0_2_2_2_2

New Line.l(r:p1udm6666-p1udm6670) Units=km Length=0.008815130000000001 bus1=p1udm6666.1.2 bus2=p1udm6670.1.2 switch=n enabled=y phases=2 Linecode=1P_UG_AL_1/0_Brenau_0_416_0_2_2_2_2

New Line.l(r:p1udm6666-p1udt1837lv) Units=km Length=0.00880527 bus1=p1udt1837lv.1.2 bus2=p1udm6666.1.2 switch=n enabled=y phases=2 Linecode=1P_UG_AL_4/0_Sweetbriar_0_416_0_2_2_2_2

New Line.l(r:p1udm6667-p1ulv21515) Units=km Length=0.0168204 bus1=p1udm6667.1.2 bus2=p1ulv21515.1.2 switch=n enabled=y phases=2 Linecode=1P_UG_AL_1/0_Brenau_0_416_0_2_2_2_2

New Line.l(r:p1udm6667-p1ulv56756) Units=km Length=0.0142559 bus1=p1udm6667.1.2 bus2=p1ulv56756.1.2 switch=n enabled=y phases=2 Linecode=1P_UG_AL_1/0_Brenau_0_416_0_2_2_2_2

New Line.l(r:p1udm6667-p1udt1837lv) Units=km Length=0.00880527 bus1=p1udt1837lv.1.2 bus2=p1udm6667.1.2 switch=n enabled=y phases=2 Linecode=1P_UG_AL_4/0_Sweetbriar_0_416_0_2_2_2_2

New Line.l(r:p1udt2396lv-p1ulv17612) Units=km Length=0.016372 bus1=p1udt2396lv.1.2 bus2=p1ulv17612.1.2 switch=n enabled=y phases=2 Linecode=1P_UG_AL_1/0_Brenau_0_416_0_2_2_2_2

New Line.l(r:p1udm8653-p1ulv2536) Units=km Length=0.0136415 bus1=p1udm8653.1.2 bus2=p1ulv2536.1.2 switch=n enabled=y phases=2 Linecode=1P_UG_AL_1/0_Brenau_0_416_0_2_2_2_2

New Line.l(r:p1udm8653-p1udt2396lv) Units=km Length=0.00900121 bus1=p1udt2396lv.1.2 bus2=p1udm8653.1.2 switch=n enabled=y phases=2 Linecode=1P_UG_AL_1/0_Brenau_0_416_0_2_2_2_2

New Line.l(r:p1udm8655-p1ulv43667) Units=km Length=0.0152191 bus1=p1udm8655.1.2 bus2=p1ulv43667.1.2 switch=n enabled=y phases=2 Linecode=1P_UG_AL_1/0_Brenau_0_416_0_2_2_2_2

New Line.l(r:p1udm8655-p1ulv51138) Units=km Length=0.0175762 bus1=p1udm8655.1.2 bus2=p1ulv51138.1.2 switch=n enabled=y phases=2 Linecode=1P_UG_AL_1/0_Brenau_0_416_0_2_2_2_2

New Line.l(r:p1udm8655-p1udt2396lv) Units=km Length=0.00941295 bus1=p1udt2396lv.1.2 bus2=p1udm8655.1.2 switch=n enabled=y phases=2 Linecode=1P_UG_AL_4/0_Sweetbriar_0_416_0_2_2_2_2

New Line.l(r:p1udm8657-p1ulv2537) Units=km Length=0.0161371 bus1=p1udm8657.1.2 bus2=p1ulv2537.1.2 switch=n enabled=y phases=2 Linecode=1P_UG_AL_1/0_Brenau_0_416_0_2_2_2_2

New Line.l(r:p1udm8657-p1udt2397lv) Units=km Length=0.0158299 bus1=p1udt2397lv.1.2 bus2=p1udm8657.1.2 switch=n enabled=y phases=2 Linecode=1P_UG_AL_1/0_Brenau_0_416_0_2_2_2_2

New Line.l(r:p1udm8658-p1ulv64811) Units=km Length=0.013463200000000002 bus1=p1udm8658.1.2 bus2=p1ulv64811.1.2 switch=n enabled=y phases=2 Linecode=1P_UG_AL_1/0_Brenau_0_416_0_2_2_2_2

New Line.l(r:p1udm8658-p1udt2397lv) Units=km Length=0.0164139 bus1=p1udt2397lv.1.2 bus2=p1udm8658.1.2 switch=n enabled=y phases=2 Linecode=1P_UG_AL_1/0_Brenau_0_416_0_2_2_2_2

New Line.l(r:p1udt2400lv-p1ulv2540) Units=km Length=0.0110865 bus1=p1udt2400lv.1.2 bus2=p1ulv2540.1.2 switch=n enabled=y phases=2 Linecode=1P_UG_AL_1/0_Brenau_0_416_0_2_2_2_2

New Line.l(r:p1udm8665-p1ulv34850) Units=km Length=0.0124042 bus1=p1udm8665.1.2 bus2=p1ulv34850.1.2 switch=n enabled=y phases=2 Linecode=1P_UG_AL_1/0_Brenau_0_416_0_2_2_2_2

New Line.l(r:p1udm8665-p1udt2400lv) Units=km Length=0.00873515 bus1=p1udt2400lv.1.2 bus2=p1udm8665.1.2 switch=n enabled=y phases=2 Linecode=1P_UG_AL_1/0_Brenau_0_416_0_2_2_2_2

New Line.l(r:p1udt2401lv-p1ulv48081) Units=km Length=0.015270500000000001 bus1=p1udt2401lv.1.2 bus2=p1ulv48081.1.2 switch=n enabled=y phases=2 Linecode=1P_UG_AL_1/0_Brenau_0_416_0_2_2_2_2

New Line.l(r:p1udm8666-p1ulv2541) Units=km Length=0.0136528 bus1=p1udm8666.1.2 bus2=p1ulv2541.1.2 switch=n enabled=y phases=2 Linecode=1P_UG_AL_1/0_Brenau_0_416_0_2_2_2_2

New Line.l(r:p1udm8666-p1ulv18943) Units=km Length=0.0139915 bus1=p1udm8666.1.2 bus2=p1ulv18943.1.2 switch=n enabled=y phases=2 Linecode=1P_UG_AL_1/0_Brenau_0_416_0_2_2_2_2

New Line.l(r:p1udm8668-p1ulv27874) Units=km Length=0.0211564 bus1=p1udm8668.1.2 bus2=p1ulv27874.1.2 switch=n enabled=y phases=2 Linecode=1P_UG_AL_1/0_Brenau_0_416_0_2_2_2_2

New Line.l(r:p1udm8666-p1udm8668) Units=km Length=0.0179013 bus1=p1udm8666.1.2 bus2=p1udm8668.1.2 switch=n enabled=y phases=2 Linecode=1P_UG_AL_1/0_Brenau_0_416_0_2_2_2_2

New Line.l(r:p1udm8666-p1udt2401lv) Units=km Length=0.008947340000000002 bus1=p1udt2401lv.1.2 bus2=p1udm8666.1.2 switch=n enabled=y phases=2 Linecode=1P_UG_AL_4/0_Sweetbriar_0_416_0_2_2_2_2

New Line.l(r:p1udm8669-p1ulv29730) Units=km Length=0.0135758 bus1=p1udm8669.1.2 bus2=p1ulv29730.1.2 switch=n enabled=y phases=2 Linecode=1P_UG_AL_1/0_Brenau_0_416_0_2_2_2_2

New Line.l(r:p1udm8669-p1ulv62923) Units=km Length=0.0133191 bus1=p1udm8669.1.2 bus2=p1ulv62923.1.2 switch=n enabled=y phases=2 Linecode=1P_UG_AL_1/0_Brenau_0_416_0_2_2_2_2

New Line.l(r:p1udm8669-p1udt2401lv) Units=km Length=0.0179013 bus1=p1udt2401lv.1.2 bus2=p1udm8669.1.2 switch=n enabled=y phases=2 Linecode=1P_UG_AL_4/0_Sweetbriar_0_416_0_2_2_2_2

New Line.l(r:p1udm12476-p1ulv3800) Units=km Length=0.0221948 bus1=p1udm12476.1.2 bus2=p1ulv3800.1.2 switch=n enabled=y phases=2 Linecode=1P_OH_AL_2/0_Rucina_0_416_0_2_2_2_2

New Line.l(r:p1udm12476-p1udt3527lv) Units=km Length=0.0189506 bus1=p1udt3527lv.1.2 bus2=p1udm12476.1.2 switch=n enabled=y phases=2 Linecode=1P_OH_AL_2/0_Rucina_0_416_0_2_2_2_2

New Line.l(r:p1udm12477-p1ulv27833) Units=km Length=0.0231501 bus1=p1udm12477.1.2 bus2=p1ulv27833.1.2 switch=n enabled=y phases=2 Linecode=1P_OH_AL_2/0_Rucina_0_416_0_2_2_2_2

New Line.l(r:p1udm12477-p1udt3527lv) Units=km Length=0.0189506 bus1=p1udt3527lv.1.2 bus2=p1udm12477.1.2 switch=n enabled=y phases=2 Linecode=1P_OH_AL_2/0_Rucina_0_416_0_2_2_2_2

New Line.l(r:p1udt3558lv-p1ulv40536) Units=km Length=0.0155293 bus1=p1udt3558lv.1.2 bus2=p1ulv40536.1.2 switch=n enabled=y phases=2 Linecode=1P_UG_AL_1/0_Brenau_0_416_0_2_2_2_2

New Line.l(r:p1udm12586-p1ulv3838) Units=km Length=0.0169085 bus1=p1udm12586.1.2 bus2=p1ulv3838.1.2 switch=n enabled=y phases=2 Linecode=1P_UG_AL_1/0_Brenau_0_416_0_2_2_2_2

New Line.l(r:p1udm12586-p1udt3558lv) Units=km Length=0.0163754 bus1=p1udt3558lv.1.2 bus2=p1udm12586.1.2 switch=n enabled=y phases=2 Linecode=1P_UG_AL_1/0_Brenau_0_416_0_2_2_2_2

New Line.l(r:p1udm12587-p1ulv12589) Units=km Length=0.0153624 bus1=p1udm12587.1.2 bus2=p1ulv12589.1.2 switch=n enabled=y phases=2 Linecode=1P_UG_AL_1/0_Brenau_0_416_0_2_2_2_2

New Line.l(r:p1udm12587-p1udt3558lv) Units=km Length=0.00961761 bus1=p1udt3558lv.1.2 bus2=p1udm12587.1.2 switch=n enabled=y phases=2 Linecode=1P_UG_AL_1/0_Brenau_0_416_0_2_2_2_2

New Line.l(r:p1udt3559lv-p1ulv3839) Units=km Length=0.0212895 bus1=p1udt3559lv.1.2 bus2=p1ulv3839.1.2 switch=n enabled=y phases=2 Linecode=1P_UG_AL_1/0_Brenau_0_416_0_2_2_2_2

New Line.l(r:p1udt3559lv-p1ulv9478) Units=km Length=0.0199746 bus1=p1udt3559lv.1.2 bus2=p1ulv9478.1.2 switch=n enabled=y phases=2 Linecode=1P_UG_AL_1/0_Brenau_0_416_0_2_2_2_2

New Line.l(r:p1udt3559lv-p1ulv15685) Units=km Length=0.020956 bus1=p1udt3559lv.1.2 bus2=p1ulv15685.1.2 switch=n enabled=y phases=2 Linecode=1P_UG_AL_1/0_Brenau_0_416_0_2_2_2_2

New Line.l(r:p1udt3559lv-p1ulv20215) Units=km Length=0.019735300000000004 bus1=p1udt3559lv.1.2 bus2=p1ulv20215.1.2 switch=n enabled=y phases=2 Linecode=1P_UG_AL_1/0_Brenau_0_416_0_2_2_2_2

New Line.l(r:p1udm12591-p1ulv13208) Units=km Length=0.0160367 bus1=p1udm12591.1.2 bus2=p1ulv13208.1.2 switch=n enabled=y phases=2 Linecode=1P_UG_AL_1/0_Brenau_0_416_0_2_2_2_2

New Line.l(r:p1udm12591-p1udt3559lv) Units=km Length=0.09885110000000001 bus1=p1udt3559lv.1.2 bus2=p1udm12591.1.2 switch=n enabled=y phases=2 Linecode=1P_UG_AL_1/0_Brenau_0_416_0_2_2_2_2

New Line.l(r:p1udt3560lv-p1ulv3840) Units=km Length=0.0226436 bus1=p1udt3560lv.1.2 bus2=p1ulv3840.1.2 switch=n enabled=y phases=2 Linecode=1P_UG_AL_1/0_Brenau_0_416_0_2_2_2_2

New Line.l(r:p1udt3560lv-p1ulv49291) Units=km Length=0.023512700000000004 bus1=p1udt3560lv.1.2 bus2=p1ulv49291.1.2 switch=n enabled=y phases=2 Linecode=1P_UG_AL_1/0_Brenau_0_416_0_2_2_2_2

New Line.l(r:p1udt3560lv-p1ulv53712) Units=km Length=0.0232056 bus1=p1udt3560lv.1.2 bus2=p1ulv53712.1.2 switch=n enabled=y phases=2 Linecode=1P_UG_AL_1/0_Brenau_0_416_0_2_2_2_2

New Line.l(r:p1udt3562lv-p1ulv24070) Units=km Length=0.0125996 bus1=p1udt3562lv.1.2 bus2=p1ulv24070.1.2 switch=n enabled=y phases=2 Linecode=1P_UG_AL_1/0_Brenau_0_416_0_2_2_2_2

New Line.l(r:p1udt3562lv-p1ulv48082) Units=km Length=0.0138733 bus1=p1udt3562lv.1.2 bus2=p1ulv48082.1.2 switch=n enabled=y phases=2 Linecode=1P_UG_AL_1/0_Brenau_0_416_0_2_2_2_2

New Line.l(r:p1udm12599-p1ulv3842) Units=km Length=0.011593000000000001 bus1=p1udm12599.1.2 bus2=p1ulv3842.1.2 switch=n enabled=y phases=2 Linecode=1P_UG_AL_1/0_Brenau_0_416_0_2_2_2_2

New Line.l(r:p1udm12599-p1ulv36138) Units=km Length=0.012143300000000001 bus1=p1udm12599.1.2 bus2=p1ulv36138.1.2 switch=n enabled=y phases=2 Linecode=1P_UG_AL_1/0_Brenau_0_416_0_2_2_2_2

New Line.l(r:p1udm12600-p1ulv15067) Units=km Length=0.014000300000000002 bus1=p1udm12600.1.2 bus2=p1ulv15067.1.2 switch=n enabled=y phases=2 Linecode=1P_UG_AL_1/0_Brenau_0_416_0_2_2_2_2

New Line.l(r:p1udm12599-p1udm12600) Units=km Length=0.0157442 bus1=p1udm12599.1.2 bus2=p1udm12600.1.2 switch=n enabled=y phases=2 Linecode=1P_UG_AL_1/0_Brenau_0_416_0_2_2_2_2

New Line.l(r:p1udm12599-p1udt3562lv) Units=km Length=0.00785877 bus1=p1udt3562lv.1.2 bus2=p1udm12599.1.2 switch=n enabled=y phases=2 Linecode=1P_UG_AL_4/0_Sweetbriar_0_416_0_2_2_2_2

New Line.l(r:p1udm12604-p1ulv60400) Units=km Length=0.0155331 bus1=p1udm12604.1.2 bus2=p1ulv60400.1.2 switch=n enabled=y phases=2 Linecode=1P_UG_AL_1/0_Brenau_0_416_0_2_2_2_2

New Line.l(r:p1udm12604-p1udt3562lv) Units=km Length=0.0174571 bus1=p1udt3562lv.1.2 bus2=p1udm12604.1.2 switch=n enabled=y phases=2 Linecode=1P_UG_AL_1/0_Brenau_0_416_0_2_2_2_2

New Line.l(r:p1udt4017lv-p1ulv4394) Units=km Length=0.0204774 bus1=p1udt4017lv.1.2 bus2=p1ulv4394.1.2 switch=n enabled=y phases=2 Linecode=1P_OH_AL_2/0_Rucina_0_416_0_2_2_2_2

New Line.l(r:p1udt4017lv-p1ulv12549) Units=km Length=0.00263797 bus1=p1udt4017lv.1.2 bus2=p1ulv12549.1.2 switch=n enabled=y phases=2 Linecode=1P_OH_AL_4_Periwinkle_0_416_0_2_2_2_2

New Line.l(r:p1udt4017lv-p1ulv44258) Units=km Length=0.0179387 bus1=p1udt4017lv.1.2 bus2=p1ulv44258.1.2 switch=n enabled=y phases=2 Linecode=1P_OH_AL_2/0_Rucina_0_416_0_2_2_2_2

New Line.l(r:p1udm14276-p1ulv4430) Units=km Length=0.0162303 bus1=p1udm14276.1.2 bus2=p1ulv4430.1.2 switch=n enabled=y phases=2 Linecode=1P_UG_AL_1/0_Brenau_0_416_0_2_2_2_2

New Line.l(r:p1udm14276-p1ulv18939) Units=km Length=0.015354800000000002 bus1=p1udm14276.1.2 bus2=p1ulv18939.1.2 switch=n enabled=y phases=2 Linecode=1P_UG_AL_1/0_Brenau_0_416_0_2_2_2_2

New Line.l(r:p1udm14279-p1ulv34845) Units=km Length=0.0139334 bus1=p1udm14279.1.2 bus2=p1ulv34845.1.2 switch=n enabled=y phases=2 Linecode=1P_UG_AL_1/0_Brenau_0_416_0_2_2_2_2

New Line.l(r:p1udm14279-p1ulv55563) Units=km Length=0.0137629 bus1=p1udm14279.1.2 bus2=p1ulv55563.1.2 switch=n enabled=y phases=2 Linecode=1P_UG_AL_1/0_Brenau_0_416_0_2_2_2_2

New Line.l(r:p1udm14276-p1udm14279) Units=km Length=0.0165997 bus1=p1udm14276.1.2 bus2=p1udm14279.1.2 switch=n enabled=y phases=2 Linecode=1P_UG_AL_4/0_Sweetbriar_0_416_0_2_2_2_2

New Line.l(r:p1udm14276-p1udt4049lv) Units=km Length=0.00760953 bus1=p1udt4049lv.1.2 bus2=p1udm14276.1.2 switch=n enabled=y phases=2 Linecode=1P_UG_AL_4/0_Sweetbriar_0_416_0_2_2_2_2

New Line.l(r:p1udm14280-p1ulv42374) Units=km Length=0.0177969 bus1=p1udm14280.1.2 bus2=p1ulv42374.1.2 switch=n enabled=y phases=2 Linecode=1P_UG_AL_1/0_Brenau_0_416_0_2_2_2_2

New Line.l(r:p1udm14277-p1ulv10713) Units=km Length=0.0164054 bus1=p1udm14277.1.2 bus2=p1ulv10713.1.2 switch=n enabled=y phases=2 Linecode=1P_UG_AL_1/0_Brenau_0_416_0_2_2_2_2

New Line.l(r:p1udm14277-p1udm14280) Units=km Length=0.00941295 bus1=p1udm14280.1.2 bus2=p1udm14277.1.2 switch=n enabled=y phases=2 Linecode=1P_UG_AL_1/0_Brenau_0_416_0_2_2_2_2

New Line.l(r:p1udm14280-p1udt4049lv) Units=km Length=0.0340455 bus1=p1udt4049lv.1.2 bus2=p1udm14280.1.2 switch=n enabled=y phases=2 Linecode=1P_UG_AL_4/0_Sweetbriar_0_416_0_2_2_2_2

New Line.l(r:p1udt4050lv-p1ulv54957) Units=km Length=0.0165795 bus1=p1udt4050lv.1.2 bus2=p1ulv54957.1.2 switch=n enabled=y phases=2 Linecode=1P_UG_AL_1/0_Brenau_0_416_0_2_2_2_2

New Line.l(r:p1udm14282-p1ulv4431) Units=km Length=0.0145786 bus1=p1udm14282.1.2 bus2=p1ulv4431.1.2 switch=n enabled=y phases=2 Linecode=1P_UG_AL_1/0_Brenau_0_416_0_2_2_2_2

New Line.l(r:p1udm14285-p1ulv56754) Units=km Length=0.014068500000000001 bus1=p1udm14285.1.2 bus2=p1ulv56754.1.2 switch=n enabled=y phases=2 Linecode=1P_UG_AL_1/0_Brenau_0_416_0_2_2_2_2

New Line.l(r:p1udm14285-p1ulv57378) Units=km Length=0.0167023 bus1=p1udm14285.1.2 bus2=p1ulv57378.1.2 switch=n enabled=y phases=2 Linecode=1P_UG_AL_1/0_Brenau_0_416_0_2_2_2_2

New Line.l(r:p1udm14282-p1udm14285) Units=km Length=0.0094662 bus1=p1udm14282.1.2 bus2=p1udm14285.1.2 switch=n enabled=y phases=2 Linecode=1P_UG_AL_4/0_Sweetbriar_0_416_0_2_2_2_2

New Line.l(r:p1udm14282-p1udt4050lv) Units=km Length=0.00946789 bus1=p1udt4050lv.1.2 bus2=p1udm14282.1.2 switch=n enabled=y phases=2 Linecode=1P_UG_AL_4/0_Sweetbriar_0_416_0_2_2_2_2

New Line.l(r:p1udm14283-p1ulv18267) Units=km Length=0.0159514 bus1=p1udm14283.1.2 bus2=p1ulv18267.1.2 switch=n enabled=y phases=2 Linecode=1P_UG_AL_1/0_Brenau_0_416_0_2_2_2_2

New Line.l(r:p1udm14283-p1udt4050lv) Units=km Length=0.0189423 bus1=p1udt4050lv.1.2 bus2=p1udm14283.1.2 switch=n enabled=y phases=2 Linecode=1P_UG_AL_1/0_Brenau_0_416_0_2_2_2_2

New Line.l(r:p1udm14288-p1ulv13209) Units=km Length=0.0154171 bus1=p1udm14288.1.2 bus2=p1ulv13209.1.2 switch=n enabled=y phases=2 Linecode=1P_UG_AL_1/0_Brenau_0_416_0_2_2_2_2

New Line.l(r:p1udm14288-p1ulv29728) Units=km Length=0.0130461 bus1=p1udm14288.1.2 bus2=p1ulv29728.1.2 switch=n enabled=y phases=2 Linecode=1P_UG_AL_1/0_Brenau_0_416_0_2_2_2_2

New Line.l(r:p1udm14287-p1ulv4432) Units=km Length=0.012267 bus1=p1udm14287.1.2 bus2=p1ulv4432.1.2 switch=n enabled=y phases=2 Linecode=1P_UG_AL_1/0_Brenau_0_416_0_2_2_2_2

New Line.l(r:p1udm14287-p1udm14288) Units=km Length=0.00749905 bus1=p1udm14288.1.2 bus2=p1udm14287.1.2 switch=n enabled=y phases=2 Linecode=1P_UG_AL_1/0_Brenau_0_416_0_2_2_2_2

New Line.l(r:p1udm14288-p1udt4051lv) Units=km Length=0.00749905 bus1=p1udt4051lv.1.2 bus2=p1udm14288.1.2 switch=n enabled=y phases=2 Linecode=1P_UG_AL_4/0_Sweetbriar_0_416_0_2_2_2_2

New Line.l(r:p1udm14290-p1ulv36137) Units=km Length=0.0137001 bus1=p1udm14290.1.2 bus2=p1ulv36137.1.2 switch=n enabled=y phases=2 Linecode=1P_UG_AL_1/0_Brenau_0_416_0_2_2_2_2

New Line.l(r:p1udm14290-p1ulv46239) Units=km Length=0.0132069 bus1=p1udm14290.1.2 bus2=p1ulv46239.1.2 switch=n enabled=y phases=2 Linecode=1P_UG_AL_1/0_Brenau_0_416_0_2_2_2_2

New Line.l(r:p1udm14290-p1udt4051lv) Units=km Length=0.007503240000000001 bus1=p1udt4051lv.1.2 bus2=p1udm14290.1.2 switch=n enabled=y phases=2 Linecode=1P_UG_AL_4/0_Sweetbriar_0_416_0_2_2_2_2

New Line.l(r:p1udt4546lv-p1ulv9475) Units=km Length=0.013911 bus1=p1udt4546lv.1.2 bus2=p1ulv9475.1.2 switch=n enabled=y phases=2 Linecode=1P_UG_AL_1/0_Brenau_0_416_0_2_2_2_2

New Line.l(r:p1udt4546lv-p1ulv24063) Units=km Length=0.0164585 bus1=p1udt4546lv.1.2 bus2=p1ulv24063.1.2 switch=n enabled=y phases=2 Linecode=1P_UG_AL_1/0_Brenau_0_416_0_2_2_2_2

New Line.l(r:p1udm15996-p1ulv5051) Units=km Length=0.01686 bus1=p1udm15996.1.2 bus2=p1ulv5051.1.2 switch=n enabled=y phases=2 Linecode=1P_UG_AL_1/0_Brenau_0_416_0_2_2_2_2

New Line.l(r:p1udm15996-p1ulv49907) Units=km Length=0.0153643 bus1=p1udm15996.1.2 bus2=p1ulv49907.1.2 switch=n enabled=y phases=2 Linecode=1P_UG_AL_1/0_Brenau_0_416_0_2_2_2_2

New Line.l(r:p1udm15996-p1udt4546lv) Units=km Length=0.00925644 bus1=p1udt4546lv.1.2 bus2=p1udm15996.1.2 switch=n enabled=y phases=2 Linecode=1P_UG_AL_4/0_Sweetbriar_0_416_0_2_2_2_2

New Line.l(r:p1udt4547lv-p1ulv10091) Units=km Length=0.012949 bus1=p1udt4547lv.1.2 bus2=p1ulv10091.1.2 switch=n enabled=y phases=2 Linecode=1P_UG_AL_1/0_Brenau_0_416_0_2_2_2_2

New Line.l(r:p1udm16000-p1ulv5052) Units=km Length=0.011662100000000002 bus1=p1udm16000.1.2 bus2=p1ulv5052.1.2 switch=n enabled=y phases=2 Linecode=1P_UG_AL_1/0_Brenau_0_416_0_2_2_2_2

New Line.l(r:p1udm16000-p1udt4547lv) Units=km Length=0.0160029 bus1=p1udt4547lv.1.2 bus2=p1udm16000.1.2 switch=n enabled=y phases=2 Linecode=1P_UG_AL_1/0_Brenau_0_416_0_2_2_2_2

New Line.l(r:p1udm16002-p1ulv15064) Units=km Length=0.0124315 bus1=p1udm16002.1.2 bus2=p1ulv15064.1.2 switch=n enabled=y phases=2 Linecode=1P_UG_AL_1/0_Brenau_0_416_0_2_2_2_2

New Line.l(r:p1udm16002-p1ulv48700) Units=km Length=0.013515300000000001 bus1=p1udm16002.1.2 bus2=p1ulv48700.1.2 switch=n enabled=y phases=2 Linecode=1P_UG_AL_1/0_Brenau_0_416_0_2_2_2_2

New Line.l(r:p1udm16002-p1udt4547lv) Units=km Length=0.017168400000000004 bus1=p1udt4547lv.1.2 bus2=p1udm16002.1.2 switch=n enabled=y phases=2 Linecode=1P_UG_AL_4/0_Sweetbriar_0_416_0_2_2_2_2

New Line.l(r:p1udt4548lv-p1ulv48080) Units=km Length=0.0115993 bus1=p1udt4548lv.1.2 bus2=p1ulv48080.1.2 switch=n enabled=y phases=2 Linecode=1P_UG_AL_1/0_Brenau_0_416_0_2_2_2_2

New Line.l(r:p1udt4548lv-p1ulv52445) Units=km Length=0.0145607 bus1=p1udt4548lv.1.2 bus2=p1ulv52445.1.2 switch=n enabled=y phases=2 Linecode=1P_UG_AL_1/0_Brenau_0_416_0_2_2_2_2

New Line.l(r:p1udm16004-p1ulv5053) Units=km Length=0.0118572 bus1=p1udm16004.1.2 bus2=p1ulv5053.1.2 switch=n enabled=y phases=2 Linecode=1P_UG_AL_1/0_Brenau_0_416_0_2_2_2_2

New Line.l(r:p1udm16004-p1udt4548lv) Units=km Length=0.00974965 bus1=p1udt4548lv.1.2 bus2=p1udm16004.1.2 switch=n enabled=y phases=2 Linecode=1P_UG_AL_1/0_Brenau_0_416_0_2_2_2_2

New Line.l(r:p1udm16005-p1ulv8857) Units=km Length=0.013449500000000001 bus1=p1udm16005.1.2 bus2=p1ulv8857.1.2 switch=n enabled=y phases=2 Linecode=1P_UG_AL_1/0_Brenau_0_416_0_2_2_2_2

New Line.l(r:p1udm16005-p1udt4548lv) Units=km Length=0.00974048 bus1=p1udt4548lv.1.2 bus2=p1udm16005.1.2 switch=n enabled=y phases=2 Linecode=1P_UG_AL_1/0_Brenau_0_416_0_2_2_2_2

New Line.l(r:p1udt4550lv-p1ulv5056) Units=km Length=0.0131627 bus1=p1udt4550lv.1.2 bus2=p1ulv5056.1.2 switch=n enabled=y phases=2 Linecode=1P_UG_AL_1/0_Brenau_0_416_0_2_2_2_2

New Line.l(r:p1udt4550lv-p1ulv39896) Units=km Length=0.0115251 bus1=p1udt4550lv.1.2 bus2=p1ulv39896.1.2 switch=n enabled=y phases=2 Linecode=1P_UG_AL_1/0_Brenau_0_416_0_2_2_2_2

New Line.l(r:p1udm16011-p1ulv18942) Units=km Length=0.0126986 bus1=p1udm16011.1.2 bus2=p1ulv18942.1.2 switch=n enabled=y phases=2 Linecode=1P_UG_AL_1/0_Brenau_0_416_0_2_2_2_2

New Line.l(r:p1udm16011-p1ulv38627) Units=km Length=0.0149429 bus1=p1udm16011.1.2 bus2=p1ulv38627.1.2 switch=n enabled=y phases=2 Linecode=1P_UG_AL_1/0_Brenau_0_416_0_2_2_2_2

New Line.l(r:p1udm16011-p1udt4550lv) Units=km Length=0.0168484 bus1=p1udt4550lv.1.2 bus2=p1udm16011.1.2 switch=n enabled=y phases=2 Linecode=1P_UG_AL_4/0_Sweetbriar_0_416_0_2_2_2_2

New Line.l(r:p1udm16014-p1ulv65458) Units=km Length=0.012609800000000001 bus1=p1udm16014.1.2 bus2=p1ulv65458.1.2 switch=n enabled=y phases=2 Linecode=1P_UG_AL_1/0_Brenau_0_416_0_2_2_2_2

New Line.l(r:p1udm16014-p1udt4550lv) Units=km Length=0.00842042 bus1=p1udt4550lv.1.2 bus2=p1udm16014.1.2 switch=n enabled=y phases=2 Linecode=1P_UG_AL_1/0_Brenau_0_416_0_2_2_2_2

New Line.l(r:p1udt5057lv-p1ulv5701) Units=km Length=0.0120599 bus1=p1udt5057lv.1.2 bus2=p1ulv5701.1.2 switch=n enabled=y phases=2 Linecode=1P_UG_AL_1/0_Brenau_0_416_0_2_2_2_2

New Line.l(r:p1udm17674-p1ulv48079) Units=km Length=0.0160203 bus1=p1udm17674.1.2 bus2=p1ulv48079.1.2 switch=n enabled=y phases=2 Linecode=1P_UG_AL_1/0_Brenau_0_416_0_2_2_2_2

New Line.l(r:p1udm17674-p1udt5057lv) Units=km Length=0.0339282 bus1=p1udt5057lv.1.2 bus2=p1udm17674.1.2 switch=n enabled=y phases=2 Linecode=1P_UG_AL_1/0_Brenau_0_416_0_2_2_2_2

New Line.l(r:p1udm17675-p1ulv49908) Units=km Length=0.0152195 bus1=p1udm17675.1.2 bus2=p1ulv49908.1.2 switch=n enabled=y phases=2 Linecode=1P_UG_AL_1/0_Brenau_0_416_0_2_2_2_2

New Line.l(r:p1udm17673-p1ulv44949) Units=km Length=0.0147622 bus1=p1udm17673.1.2 bus2=p1ulv44949.1.2 switch=n enabled=y phases=2 Linecode=1P_UG_AL_1/0_Brenau_0_416_0_2_2_2_2

New Line.l(r:p1udm17673-p1udm17675) Units=km Length=0.0180054 bus1=p1udm17675.1.2 bus2=p1udm17673.1.2 switch=n enabled=y phases=2 Linecode=1P_UG_AL_1/0_Brenau_0_416_0_2_2_2_2

New Line.l(r:p1udm17675-p1udt5057lv) Units=km Length=0.00900174 bus1=p1udt5057lv.1.2 bus2=p1udm17675.1.2 switch=n enabled=y phases=2 Linecode=1P_UG_AL_4/0_Sweetbriar_0_416_0_2_2_2_2

New Line.l(r:p1udt5581lv-p1ulv50525) Units=km Length=0.0158733 bus1=p1udt5581lv.1.2 bus2=p1ulv50525.1.2 switch=n enabled=y phases=2 Linecode=1P_OH_AL_2/0_Rucina_0_416_0_2_2_2_2
