New Line.l(r:p4udm233-p4ulv94) Units=km Length=0.036721 bus1=p4udm233.1.2 bus2=p4ulv94.1.2 switch=n enabled=y phases=2 Linecode=1P_OH_AL_4/0_Zuzara_0_416_0_2_2_2_2

New Line.l(r:p4udm233-p4udt89lv) Units=km Length=0.019747 bus1=p4udt89lv.1.2 bus2=p4udm233.1.2 switch=n enabled=y phases=2 Linecode=1P_OH_AL_2/0_Rucina_0_416_0_2_2_2_2

New Line.l(r:p4udm234-p4ulv95) Units=km Length=0.018505900000000002 bus1=p4udm234.1.2 bus2=p4ulv95.1.2 switch=n enabled=y phases=2 Linecode=1P_OH_AL_2/0_Rucina_0_416_0_2_2_2_2

New Line.l(r:p4udm234-p4ulv41618) Units=km Length=0.06210100000000001 bus1=p4udm234.1.2 bus2=p4ulv41618.1.2 switch=n enabled=y phases=2 Linecode=1P_OH_AL_4/0_Zuzara_0_416_0_2_2_2_2

New Line.l(r:p4udm234-p4udt89lv) Units=km Length=0.019746700000000002 bus1=p4udt89lv.1.2 bus2=p4udm234.1.2 switch=n enabled=y phases=2 Linecode=1P_OH_AL_2/0_Rucina_0_416_0_2_2_2_2

New Line.l(r:p4udt436lv-p4ulv12690) Units=km Length=0.0270948 bus1=p4udt436lv.1.2 bus2=p4ulv12690.1.2 switch=n enabled=y phases=2 Linecode=1P_OH_AL_4/0_Zuzara_0_416_0_2_2_2_2

New Line.l(r:p4udt436lv-p4ulv12691) Units=km Length=0.0372538 bus1=p4udt436lv.1.2 bus2=p4ulv12691.1.2 switch=n enabled=y phases=2 Linecode=1P_OH_AL_4/0_Zuzara_0_416_0_2_2_2_2

New Line.l(r:p4udt436lv-p4ulv31460) Units=km Length=0.0233462 bus1=p4udt436lv.1.2 bus2=p4ulv31460.1.2 switch=n enabled=y phases=2 Linecode=1P_OH_AL_2/0_Rucina_0_416_0_2_2_2_2

New Line.l(r:p4udm1157-p4ulv442) Units=km Length=0.0389563 bus1=p4udm1157.1.2 bus2=p4ulv442.1.2 switch=n enabled=y phases=2 Linecode=1P_OH_AL_4/0_Zuzara_0_416_0_2_2_2_2

New Line.l(r:p4udm1157-p4udt436lv) Units=km Length=0.0262708 bus1=p4udt436lv.1.2 bus2=p4udm1157.1.2 switch=n enabled=y phases=2 Linecode=1P_OH_AL_2/0_Rucina_0_416_0_2_2_2_2

New Line.l(r:p4udm1158-p4ulv2114) Units=km Length=0.0255228 bus1=p4udm1158.1.2 bus2=p4ulv2114.1.2 switch=n enabled=y phases=2 Linecode=1P_OH_AL_2/0_Rucina_0_416_0_2_2_2_2

New Line.l(r:p4udm1158-p4udt436lv) Units=km Length=0.0278264 bus1=p4udt436lv.1.2 bus2=p4udm1158.1.2 switch=n enabled=y phases=2 Linecode=1P_OH_AL_4/0_Zuzara_0_416_0_2_2_2_2

New Line.l(r:p4udt437lv-p4ulv443) Units=km Length=0.0242549 bus1=p4udt437lv.1.2 bus2=p4ulv443.1.2 switch=n enabled=y phases=2 Linecode=1P_OH_AL_2/0_Rucina_0_416_0_2_2_2_2

New Line.l(r:p4udm1389-p4ulv523) Units=km Length=0.0333053 bus1=p4udm1389.1.2 bus2=p4ulv523.1.2 switch=n enabled=y phases=2 Linecode=1P_UG_AL_1/0_Brenau_0_416_0_2_2_2_2

New Line.l(r:p4udm1389-p4udt514lv) Units=km Length=0.0384998 bus1=p4udt514lv.1.2 bus2=p4udm1389.1.2 switch=n enabled=y phases=2 Linecode=1P_UG_AL_1/0_Brenau_0_416_0_2_2_2_2

New Line.l(r:p4udm1392-p4ulv40767) Units=km Length=0.0295895 bus1=p4udm1392.1.2 bus2=p4ulv40767.1.2 switch=n enabled=y phases=2 Linecode=1P_UG_AL_1/0_Brenau_0_416_0_2_2_2_2

New Line.l(r:p4udm1390-p4ulv17580) Units=km Length=0.12368 bus1=p4udm1390.1.2 bus2=p4ulv17580.1.2 switch=n enabled=y phases=2 Linecode=1P_UG_AL_1/0_Brenau_0_416_0_2_2_2_2

New Line.l(r:p4udm1390-p4ulv41998) Units=km Length=0.00455379 bus1=p4udm1390.1.2 bus2=p4ulv41998.1.2 switch=n enabled=y phases=2 Linecode=1P_UG_AL_1/0_Brenau_0_416_0_2_2_2_2

New Line.l(r:p4udm1391-p4ulv23487) Units=km Length=0.0269627 bus1=p4udm1391.1.2 bus2=p4ulv23487.1.2 switch=n enabled=y phases=2 Linecode=1P_UG_AL_1/0_Brenau_0_416_0_2_2_2_2

New Line.l(r:p4udm1390-p4udm1391) Units=km Length=0.00919356 bus1=p4udm1390.1.2 bus2=p4udm1391.1.2 switch=n enabled=y phases=2 Linecode=1P_UG_AL_1/0_Brenau_0_416_0_2_2_2_2

New Line.l(r:p4udm1390-p4udm1392) Units=km Length=0.00919356 bus1=p4udm1392.1.2 bus2=p4udm1390.1.2 switch=n enabled=y phases=2 Linecode=1P_UG_AL_2/0_Converse_0_416_0_2_2_2_2

New Line.l(r:p4udm1392-p4udt514lv) Units=km Length=0.0096248 bus1=p4udt514lv.1.2 bus2=p4udm1392.1.2 switch=n enabled=y phases=2 Linecode=1P_UG_AL_4/0_Sweetbriar_0_416_0_2_2_2_2

New Line.l(r:p4udt515lv-p4ulv36580) Units=km Length=0.00991903 bus1=p4udt515lv.1.2 bus2=p4ulv36580.1.2 switch=n enabled=y phases=2 Linecode=1P_OH_AL_2/0_Rucina_0_416_0_2_2_2_2

New Line.l(r:p4udm1394-p4ulv524) Units=km Length=0.0216161 bus1=p4udm1394.1.2 bus2=p4ulv524.1.2 switch=n enabled=y phases=2 Linecode=1P_OH_AL_2/0_Rucina_0_416_0_2_2_2_2

New Line.l(r:p4udm1397-p4ulv39075) Units=km Length=0.015828 bus1=p4udm1397.1.2 bus2=p4ulv39075.1.2 switch=n enabled=y phases=2 Linecode=1P_OH_AL_2/0_Rucina_0_416_0_2_2_2_2

New Line.l(r:p4udm1394-p4udm1397) Units=km Length=0.019856600000000002 bus1=p4udm1394.1.2 bus2=p4udm1397.1.2 switch=n enabled=y phases=2 Linecode=1P_OH_AL_2/0_Rucina_0_416_0_2_2_2_2

New Line.l(r:p4udm1394-p4udt515lv) Units=km Length=0.0198487 bus1=p4udt515lv.1.2 bus2=p4udm1394.1.2 switch=n enabled=y phases=2 Linecode=1P_OH_AL_2/0_Rucina_0_416_0_2_2_2_2

New Line.l(r:p4udm1395-p4ulv23109) Units=km Length=0.030844000000000003 bus1=p4udm1395.1.2 bus2=p4ulv23109.1.2 switch=n enabled=y phases=2 Linecode=1P_OH_AL_4/0_Zuzara_0_416_0_2_2_2_2

New Line.l(r:p4udm1395-p4udt515lv) Units=km Length=0.019856600000000002 bus1=p4udt515lv.1.2 bus2=p4udm1395.1.2 switch=n enabled=y phases=2 Linecode=1P_OH_AL_2/0_Rucina_0_416_0_2_2_2_2

New Line.l(r:p4udt840lv-p4ulv10528) Units=km Length=0.0115912 bus1=p4udt840lv.1.2 bus2=p4ulv10528.1.2 switch=n enabled=y phases=2 Linecode=1P_UG_AL_1/0_Brenau_0_416_0_2_2_2_2

New Line.l(r:p4udm2279-p4ulv857) Units=km Length=0.0072673600000000005 bus1=p4udm2279.1.2 bus2=p4ulv857.1.2 switch=n enabled=y phases=2 Linecode=1P_UG_AL_1/0_Brenau_0_416_0_2_2_2_2

New Line.l(r:p4udm2279-p4udt840lv) Units=km Length=0.0215622 bus1=p4udt840lv.1.2 bus2=p4udm2279.1.2 switch=n enabled=y phases=2 Linecode=1P_UG_AL_1/0_Brenau_0_416_0_2_2_2_2

New Line.l(r:p4udm2280-p4ulv2113) Units=km Length=0.0110433 bus1=p4udm2280.1.2 bus2=p4ulv2113.1.2 switch=n enabled=y phases=2 Linecode=1P_OH_AL_2/0_Rucina_0_416_0_2_2_2_2

New Line.l(r:p4udm2280-p4udt840lv) Units=km Length=0.0267374 bus1=p4udt840lv.1.2 bus2=p4udm2280.1.2 switch=n enabled=y phases=2 Linecode=1P_OH_AL_2/0_Rucina_0_416_0_2_2_2_2

New Line.l(r:p4udt841lv-p4ulv858) Units=km Length=0.0236976 bus1=p4udt841lv.1.2 bus2=p4ulv858.1.2 switch=n enabled=y phases=2 Linecode=1P_UG_AL_1/0_Brenau_0_416_0_2_2_2_2

New Line.l(r:p4udm2283-p4ulv28900) Units=km Length=0.022437 bus1=p4udm2283.1.2 bus2=p4ulv28900.1.2 switch=n enabled=y phases=2 Linecode=1P_UG_AL_2/0_Converse_0_416_0_2_2_2_2

New Line.l(r:p4udm2283-p4udt841lv) Units=km Length=0.00704344 bus1=p4udt841lv.1.2 bus2=p4udm2283.1.2 switch=n enabled=y phases=2 Linecode=1P_UG_AL_2/0_Converse_0_416_0_2_2_2_2

New Line.l(r:p4udt926lv-p4ulv946) Units=km Length=0.0237352 bus1=p4udt926lv.1.2 bus2=p4ulv946.1.2 switch=n enabled=y phases=2 Linecode=1P_OH_AL_2/0_Rucina_0_416_0_2_2_2_2

New Line.l(r:p4udt926lv-p4ulv6794) Units=km Length=0.0177647 bus1=p4udt926lv.1.2 bus2=p4ulv6794.1.2 switch=n enabled=y phases=2 Linecode=1P_OH_AL_2/0_Rucina_0_416_0_2_2_2_2

New Line.l(r:p4udt926lv-p4ulv26397) Units=km Length=0.0266826 bus1=p4udt926lv.1.2 bus2=p4ulv26397.1.2 switch=n enabled=y phases=2 Linecode=1P_OH_AL_2/0_Rucina_0_416_0_2_2_2_2

New Line.l(r:p4udt926lv-p4ulv28572) Units=km Length=0.0175673 bus1=p4udt926lv.1.2 bus2=p4ulv28572.1.2 switch=n enabled=y phases=2 Linecode=1P_OH_AL_2/0_Rucina_0_416_0_2_2_2_2

New Line.l(r:p4udm2507-p4ulv10618) Units=km Length=0.0179665 bus1=p4udm2507.1.2 bus2=p4ulv10618.1.2 switch=n enabled=y phases=2 Linecode=1P_OH_AL_2/0_Rucina_0_416_0_2_2_2_2

New Line.l(r:p4udm2507-p4udt926lv) Units=km Length=0.0329616 bus1=p4udt926lv.1.2 bus2=p4udm2507.1.2 switch=n enabled=y phases=2 Linecode=1P_OH_AL_4/0_Zuzara_0_416_0_2_2_2_2

New Line.l(r:p4udm2510-p4ulv41196) Units=km Length=0.0205661 bus1=p4udm2510.1.2 bus2=p4ulv41196.1.2 switch=n enabled=y phases=2 Linecode=1P_OH_AL_2/0_Rucina_0_416_0_2_2_2_2

New Line.l(r:p4udm2510-p4udt926lv) Units=km Length=0.011921 bus1=p4udt926lv.1.2 bus2=p4udm2510.1.2 switch=n enabled=y phases=2 Linecode=1P_OH_AL_2/0_Rucina_0_416_0_2_2_2_2

New Line.l(r:p4udt927lv-p4ulv17587) Units=km Length=0.0277567 bus1=p4udt927lv.1.2 bus2=p4ulv17587.1.2 switch=n enabled=y phases=2 Linecode=1P_OH_AL_4/0_Zuzara_0_416_0_2_2_2_2

New Line.l(r:p4udt927lv-p4ulv21865) Units=km Length=0.0112091 bus1=p4udt927lv.1.2 bus2=p4ulv21865.1.2 switch=n enabled=y phases=2 Linecode=1P_OH_AL_2/0_Rucina_0_416_0_2_2_2_2

New Line.l(r:p4udm2511-p4ulv947) Units=km Length=0.0141278 bus1=p4udm2511.1.2 bus2=p4ulv947.1.2 switch=n enabled=y phases=2 Linecode=1P_OH_AL_2/0_Rucina_0_416_0_2_2_2_2

New Line.l(r:p4udm2515-p4ulv43724) Units=km Length=0.027048600000000003 bus1=p4udm2515.1.2 bus2=p4ulv43724.1.2 switch=n enabled=y phases=2 Linecode=1P_OH_AL_4/0_Zuzara_0_416_0_2_2_2_2

New Line.l(r:p4udm2511-p4udm2515) Units=km Length=0.0376242 bus1=p4udm2511.1.2 bus2=p4udm2515.1.2 switch=n enabled=y phases=2 Linecode=1P_OH_AL_4/0_Zuzara_0_416_0_2_2_2_2

New Line.l(r:p4udm2511-p4udt927lv) Units=km Length=0.0175031 bus1=p4udt927lv.1.2 bus2=p4udm2511.1.2 switch=n enabled=y phases=2 Linecode=1P_OH_AL_2/0_Rucina_0_416_0_2_2_2_2

New Line.l(r:p4udm2512-p4ulv4686) Units=km Length=0.0239038 bus1=p4udm2512.1.2 bus2=p4ulv4686.1.2 switch=n enabled=y phases=2 Linecode=1P_OH_AL_2/0_Rucina_0_416_0_2_2_2_2

New Line.l(r:p4udm2512-p4udt927lv) Units=km Length=0.04356630000000001 bus1=p4udt927lv.1.2 bus2=p4udm2512.1.2 switch=n enabled=y phases=2 Linecode=1P_OH_AL_4/0_Zuzara_0_416_0_2_2_2_2

New Line.l(r:p4udt928lv-p4ulv948) Units=km Length=0.0179009 bus1=p4udt928lv.1.2 bus2=p4ulv948.1.2 switch=n enabled=y phases=2 Linecode=1P_OH_AL_2/0_Rucina_0_416_0_2_2_2_2

New Line.l(r:p4udt928lv-p4ulv2604) Units=km Length=0.0179009 bus1=p4udt928lv.1.2 bus2=p4ulv2604.1.2 switch=n enabled=y phases=2 Linecode=1P_OH_AL_2/0_Rucina_0_416_0_2_2_2_2

New Line.l(r:p4udt1322lv-p4ulv1369) Units=km Length=0.0553429 bus1=p4udt1322lv.1.2 bus2=p4ulv1369.1.2 switch=n enabled=y phases=2 Linecode=1P_OH_AL_4/0_Zuzara_0_416_0_2_2_2_2

New Line.l(r:p4udt1323lv-p4ulv25119) Units=km Length=0.0171181 bus1=p4udt1323lv.1.2 bus2=p4ulv25119.1.2 switch=n enabled=y phases=2 Linecode=1P_OH_AL_2/0_Rucina_0_416_0_2_2_2_2

New Line.l(r:p4udm3555-p4ulv1370) Units=km Length=0.022288000000000002 bus1=p4udm3555.1.2 bus2=p4ulv1370.1.2 switch=n enabled=y phases=2 Linecode=1P_OH_AL_2/0_Rucina_0_416_0_2_2_2_2

New Line.l(r:p4udm3555-p4udt1323lv) Units=km Length=0.0198487 bus1=p4udt1323lv.1.2 bus2=p4udm3555.1.2 switch=n enabled=y phases=2 Linecode=1P_OH_AL_2/0_Rucina_0_416_0_2_2_2_2

New Line.l(r:p4udt1324lv-p4ulv1371) Units=km Length=0.0299929 bus1=p4udt1324lv.1.2 bus2=p4ulv1371.1.2 switch=n enabled=y phases=2 Linecode=1P_OH_AL_4/0_Zuzara_0_416_0_2_2_2_2

New Line.l(r:p4udt1324lv-p4ulv16245) Units=km Length=0.0169779 bus1=p4udt1324lv.1.2 bus2=p4ulv16245.1.2 switch=n enabled=y phases=2 Linecode=1P_OH_AL_2/0_Rucina_0_416_0_2_2_2_2

New Line.l(r:p4udm3559-p4ulv26859) Units=km Length=0.00895092 bus1=p4udm3559.1.2 bus2=p4ulv26859.1.2 switch=n enabled=y phases=2 Linecode=1P_OH_AL_2/0_Rucina_0_416_0_2_2_2_2

New Line.l(r:p4udm3559-p4udt1324lv) Units=km Length=0.0161374 bus1=p4udt1324lv.1.2 bus2=p4udm3559.1.2 switch=n enabled=y phases=2 Linecode=1P_OH_AL_2/0_Rucina_0_416_0_2_2_2_2

New Line.l(r:p4udt1658lv-p4ulv1725) Units=km Length=0.018314 bus1=p4udt1658lv.1.2 bus2=p4ulv1725.1.2 switch=n enabled=y phases=2 Linecode=1P_UG_AL_1/0_Brenau_0_416_0_2_2_2_2

New Line.l(r:p4udt1731lv-p4ulv1801) Units=km Length=0.001 bus1=p4udt1731lv.1.2 bus2=p4ulv1801.1.2 switch=n enabled=y phases=2 Linecode=1P_OH_AL_4_Periwinkle_0_416_0_2_2_2_2

New Line.l(r:p4udt1733lv-p4ulv1803) Units=km Length=0.0381297 bus1=p4udt1733lv.1.2 bus2=p4ulv1803.1.2 switch=n enabled=y phases=2 Linecode=1P_OH_AL_4/0_Zuzara_0_416_0_2_2_2_2

New Line.l(r:p4udt1734lv-p4ulv1804) Units=km Length=0.0377816 bus1=p4udt1734lv.1.2 bus2=p4ulv1804.1.2 switch=n enabled=y phases=2 Linecode=1P_OH_AL_4/0_Zuzara_0_416_0_2_2_2_2

New Line.l(r:p4udt1734lv-p4ulv2602) Units=km Length=0.0151967 bus1=p4udt1734lv.1.2 bus2=p4ulv2602.1.2 switch=n enabled=y phases=2 Linecode=1P_OH_AL_2/0_Rucina_0_416_0_2_2_2_2

New Line.l(r:p4udt1735lv-p4ulv1805) Units=km Length=0.0413087 bus1=p4udt1735lv.1.2 bus2=p4ulv1805.1.2 switch=n enabled=y phases=2 Linecode=1P_OH_AL_4/0_Zuzara_0_416_0_2_2_2_2

New Line.l(r:p4udt1735lv-p4ulv34911) Units=km Length=0.0271731 bus1=p4udt1735lv.1.2 bus2=p4ulv34911.1.2 switch=n enabled=y phases=2 Linecode=1P_OH_AL_4/0_Zuzara_0_416_0_2_2_2_2

New Line.l(r:p4udt1736lv-p4ulv11897) Units=km Length=0.0259317 bus1=p4udt1736lv.1.2 bus2=p4ulv11897.1.2 switch=n enabled=y phases=2 Linecode=1P_OH_AL_2/0_Rucina_0_416_0_2_2_2_2

New Line.l(r:p4udt1736lv-p4ulv13237) Units=km Length=0.0168978 bus1=p4udt1736lv.1.2 bus2=p4ulv13237.1.2 switch=n enabled=y phases=2 Linecode=1P_OH_AL_2/0_Rucina_0_416_0_2_2_2_2

New Line.l(r:p4udt1736lv-p4ulv26862) Units=km Length=0.0324336 bus1=p4udt1736lv.1.2 bus2=p4ulv26862.1.2 switch=n enabled=y phases=2 Linecode=1P_OH_AL_4/0_Zuzara_0_416_0_2_2_2_2

New Line.l(r:p4udm4689-p4ulv1806) Units=km Length=0.0154614 bus1=p4udm4689.1.2 bus2=p4ulv1806.1.2 switch=n enabled=y phases=2 Linecode=1P_OH_AL_2/0_Rucina_0_416_0_2_2_2_2

New Line.l(r:p4udm4692-p4ulv22292) Units=km Length=0.0140885 bus1=p4udm4692.1.2 bus2=p4ulv22292.1.2 switch=n enabled=y phases=2 Linecode=1P_OH_AL_2/0_Rucina_0_416_0_2_2_2_2

New Line.l(r:p4udm4689-p4udm4692) Units=km Length=0.0161891 bus1=p4udm4689.1.2 bus2=p4udm4692.1.2 switch=n enabled=y phases=2 Linecode=1P_OH_AL_2/0_Rucina_0_416_0_2_2_2_2

New Line.l(r:p4udm4689-p4udt1736lv) Units=km Length=0.0161879 bus1=p4udt1736lv.1.2 bus2=p4udm4689.1.2 switch=n enabled=y phases=2 Linecode=1P_OH_AL_2/0_Rucina_0_416_0_2_2_2_2

New Line.l(r:p4udt2020lv-p4ulv2112) Units=km Length=0.017334 bus1=p4udt2020lv.1.2 bus2=p4ulv2112.1.2 switch=n enabled=y phases=2 Linecode=1P_UG_AL_1/0_Brenau_0_416_0_2_2_2_2

New Line.l(r:p4udt2089lv-p4ulv2187) Units=km Length=0.00519272 bus1=p4udt2089lv.1.2 bus2=p4ulv2187.1.2 switch=n enabled=y phases=2 Linecode=1P_OH_AL_2/0_Rucina_0_416_0_2_2_2_2

New Line.l(r:p4udt2089lv-p4ulv9779) Units=km Length=0.0219268 bus1=p4udt2089lv.1.2 bus2=p4ulv9779.1.2 switch=n enabled=y phases=2 Linecode=1P_OH_AL_2/0_Rucina_0_416_0_2_2_2_2

New Line.l(r:p4udt2089lv-p4ulv14525) Units=km Length=0.0399467 bus1=p4udt2089lv.1.2 bus2=p4ulv14525.1.2 switch=n enabled=y phases=2 Linecode=1P_OH_AL_4/0_Zuzara_0_416_0_2_2_2_2

New Line.l(r:p4udt2089lv-p4ulv42437) Units=km Length=0.0569239 bus1=p4udt2089lv.1.2 bus2=p4ulv42437.1.2 switch=n enabled=y phases=2 Linecode=1P_OH_AL_4/0_Zuzara_0_416_0_2_2_2_2

New Line.l(r:p4udt2090lv-p4ulv38290) Units=km Length=0.055470700000000005 bus1=p4udt2090lv.1.2 bus2=p4ulv38290.1.2 switch=n enabled=y phases=2 Linecode=1P_OH_AL_4/0_Zuzara_0_416_0_2_2_2_2

New Line.l(r:p4udm5602-p4ulv2188) Units=km Length=0.0407742 bus1=p4udm5602.1.2 bus2=p4ulv2188.1.2 switch=n enabled=y phases=2 Linecode=1P_OH_AL_4/0_Zuzara_0_416_0_2_2_2_2

New Line.l(r:p4udm5604-p4ulv31966) Units=km Length=0.0523595 bus1=p4udm5604.1.2 bus2=p4ulv31966.1.2 switch=n enabled=y phases=2 Linecode=1P_OH_AL_4/0_Zuzara_0_416_0_2_2_2_2

New Line.l(r:p4udm5602-p4udm5604) Units=km Length=0.0276935 bus1=p4udm5602.1.2 bus2=p4udm5604.1.2 switch=n enabled=y phases=2 Linecode=1P_OH_AL_4/0_Zuzara_0_416_0_2_2_2_2

New Line.l(r:p4udm5602-p4udt2090lv) Units=km Length=0.014846 bus1=p4udt2090lv.1.2 bus2=p4udm5602.1.2 switch=n enabled=y phases=2 Linecode=1P_OH_AL_2/0_Rucina_0_416_0_2_2_2_2

New Line.l(r:p4udm5603-p4ulv23107) Units=km Length=0.048752 bus1=p4udm5603.1.2 bus2=p4ulv23107.1.2 switch=n enabled=y phases=2 Linecode=1P_OH_AL_4/0_Zuzara_0_416_0_2_2_2_2

New Line.l(r:p4udm5603-p4udt2090lv) Units=km Length=0.014844700000000002 bus1=p4udt2090lv.1.2 bus2=p4udm5603.1.2 switch=n enabled=y phases=2 Linecode=1P_OH_AL_2/0_Rucina_0_416_0_2_2_2_2

New Line.l(r:p4udm5606-p4ulv2189) Units=km Length=0.0365832 bus1=p4udm5606.1.2 bus2=p4ulv2189.1.2 switch=n enabled=y phases=2 Linecode=1P_UG_AL_1/0_Brenau_0_416_0_2_2_2_2

New Line.l(r:p4udm5606-p4udt2091lv) Units=km Length=0.00875315 bus1=p4udt2091lv.1.2 bus2=p4udm5606.1.2 switch=n enabled=y phases=2 Linecode=1P_UG_AL_1/0_Brenau_0_416_0_2_2_2_2

New Line.l(r:p4udm5607-p4ulv5966) Units=km Length=0.00838487 bus1=p4udm5607.1.2 bus2=p4ulv5966.1.2 switch=n enabled=y phases=2 Linecode=1P_UG_AL_1/0_Brenau_0_416_0_2_2_2_2

New Line.l(r:p4udm5607-p4udt2091lv) Units=km Length=0.00874818 bus1=p4udt2091lv.1.2 bus2=p4udm5607.1.2 switch=n enabled=y phases=2 Linecode=1P_UG_AL_1/0_Brenau_0_416_0_2_2_2_2

New Line.l(r:p4udt2095lv-p4ulv2193) Units=km Length=0.001 bus1=p4udt2095lv.1.2 bus2=p4ulv2193.1.2 switch=n enabled=y phases=2 Linecode=1P_OH_AL_4_Periwinkle_0_416_0_2_2_2_2

New Line.l(r:p4udt2098lv-p4ulv2196) Units=km Length=0.0454268 bus1=p4udt2098lv.1.2 bus2=p4ulv2196.1.2 switch=n enabled=y phases=2 Linecode=1P_OH_AL_4/0_Zuzara_0_416_0_2_2_2_2

New Line.l(r:p4udt2098lv-p4ulv24302) Units=km Length=0.06114060000000001 bus1=p4udt2098lv.1.2 bus2=p4ulv24302.1.2 switch=n enabled=y phases=2 Linecode=1P_OH_AL_4/0_Zuzara_0_416_0_2_2_2_2

New Line.l(r:p4udt2098lv-p4ulv37848) Units=km Length=0.0174072 bus1=p4udt2098lv.1.2 bus2=p4ulv37848.1.2 switch=n enabled=y phases=2 Linecode=1P_OH_AL_2/0_Rucina_0_416_0_2_2_2_2

New Line.l(r:p4udm6351-p4ulv2498) Units=km Length=0.011952 bus1=p4udm6351.1.2 bus2=p4ulv2498.1.2 switch=n enabled=y phases=2 Linecode=1P_UG_AL_1/0_Brenau_0_416_0_2_2_2_2

New Line.l(r:p4udm6352-p4ulv6295) Units=km Length=0.0131936 bus1=p4udm6352.1.2 bus2=p4ulv6295.1.2 switch=n enabled=y phases=2 Linecode=1P_UG_AL_1/0_Brenau_0_416_0_2_2_2_2

New Line.l(r:p4udm6351-p4udm6352) Units=km Length=0.00931585 bus1=p4udm6351.1.2 bus2=p4udm6352.1.2 switch=n enabled=y phases=2 Linecode=1P_UG_AL_1/0_Brenau_0_416_0_2_2_2_2

New Line.l(r:p4udm6351-p4udt2377lv) Units=km Length=0.00931585 bus1=p4udt2377lv.1.2 bus2=p4udm6351.1.2 switch=n enabled=y phases=2 Linecode=1P_UG_AL_4/0_Sweetbriar_0_416_0_2_2_2_2

New Line.l(r:p4udm6353-p4ulv24646) Units=km Length=0.0131102 bus1=p4udm6353.1.2 bus2=p4ulv24646.1.2 switch=n enabled=y phases=2 Linecode=1P_UG_AL_1/0_Brenau_0_416_0_2_2_2_2

New Line.l(r:p4udm6353-p4udt2377lv) Units=km Length=0.018638 bus1=p4udt2377lv.1.2 bus2=p4udm6353.1.2 switch=n enabled=y phases=2 Linecode=1P_UG_AL_1/0_Brenau_0_416_0_2_2_2_2

New Line.l(r:p4udt2378lv-p4ulv2499) Units=km Length=0.0239209 bus1=p4udt2378lv.1.2 bus2=p4ulv2499.1.2 switch=n enabled=y phases=2 Linecode=1P_OH_AL_2/0_Rucina_0_416_0_2_2_2_2

New Line.l(r:p4udt2379lv-p4ulv2500) Units=km Length=0.0242384 bus1=p4udt2379lv.1.2 bus2=p4ulv2500.1.2 switch=n enabled=y phases=2 Linecode=1P_OH_AL_2/0_Rucina_0_416_0_2_2_2_2

New Line.l(r:p4udt2466lv-p4ulv2598) Units=km Length=0.001 bus1=p4udt2466lv.1.2 bus2=p4ulv2598.1.2 switch=n enabled=y phases=2 Linecode=1P_OH_AL_4_Periwinkle_0_416_0_2_2_2_2

New Line.l(r:p4udt2469lv-p4ulv2603) Units=km Length=0.030377100000000004 bus1=p4udt2469lv.1.2 bus2=p4ulv2603.1.2 switch=n enabled=y phases=2 Linecode=1P_OH_AL_4/0_Zuzara_0_416_0_2_2_2_2

New Line.l(r:p4udt2469lv-p4ulv14967) Units=km Length=0.0242709 bus1=p4udt2469lv.1.2 bus2=p4ulv14967.1.2 switch=n enabled=y phases=2 Linecode=1P_OH_AL_2/0_Rucina_0_416_0_2_2_2_2

New Line.l(r:p4udt2469lv-p4ulv30288) Units=km Length=0.123483 bus1=p4udt2469lv.1.2 bus2=p4ulv30288.1.2 switch=n enabled=y phases=2 Linecode=1P_OH_AL_4/0_Zuzara_0_416_0_2_2_2_2

New Line.l(r:p4udm6577-p4ulv40775) Units=km Length=0.0273738 bus1=p4udm6577.1.2 bus2=p4ulv40775.1.2 switch=n enabled=y phases=2 Linecode=1P_OH_AL_4/0_Zuzara_0_416_0_2_2_2_2

New Line.l(r:p4udm6574-p4ulv12363) Units=km Length=0.023674 bus1=p4udm6574.1.2 bus2=p4ulv12363.1.2 switch=n enabled=y phases=2 Linecode=1P_OH_AL_2/0_Rucina_0_416_0_2_2_2_2

New Line.l(r:p4udm6574-p4udm6577) Units=km Length=0.0134659 bus1=p4udm6577.1.2 bus2=p4udm6574.1.2 switch=n enabled=y phases=2 Linecode=1P_OH_AL_2/0_Rucina_0_416_0_2_2_2_2

New Line.l(r:p4udm6577-p4udt2469lv) Units=km Length=0.0156068 bus1=p4udt2469lv.1.2 bus2=p4udm6577.1.2 switch=n enabled=y phases=2 Linecode=1P_OH_AL_2/0_Rucina_0_416_0_2_2_2_2

New Line.l(r:p4udt2778lv-p4ulv2955) Units=km Length=0.0308735 bus1=p4udt2778lv.1.2 bus2=p4ulv2955.1.2 switch=n enabled=y phases=2 Linecode=1P_OH_AL_4/0_Zuzara_0_416_0_2_2_2_2

New Line.l(r:p4udm7391-p4ulv17073) Units=km Length=0.0299263 bus1=p4udm7391.1.2 bus2=p4ulv17073.1.2 switch=n enabled=y phases=2 Linecode=1P_OH_AL_4/0_Zuzara_0_416_0_2_2_2_2

New Line.l(r:p4udm7391-p4udt2778lv) Units=km Length=0.0182374 bus1=p4udt2778lv.1.2 bus2=p4udm7391.1.2 switch=n enabled=y phases=2 Linecode=1P_OH_AL_2/0_Rucina_0_416_0_2_2_2_2

New Line.l(r:p4udt2781lv-p4ulv2958) Units=km Length=0.0322723 bus1=p4udt2781lv.1.2 bus2=p4ulv2958.1.2 switch=n enabled=y phases=2 Linecode=1P_OH_AL_4/0_Zuzara_0_416_0_2_2_2_2

New Line.l(r:p4udt2857lv-p4ulv18840) Units=km Length=0.012104900000000002 bus1=p4udt2857lv.1.2 bus2=p4ulv18840.1.2 switch=n enabled=y phases=2 Linecode=1P_OH_AL_2/0_Rucina_0_416_0_2_2_2_2

New Line.l(r:p4udm7597-p4ulv3044) Units=km Length=0.0285683 bus1=p4udm7597.1.2 bus2=p4ulv3044.1.2 switch=n enabled=y phases=2 Linecode=1P_OH_AL_4/0_Zuzara_0_416_0_2_2_2_2

New Line.l(r:p4udm7597-p4ulv11032) Units=km Length=0.00164939 bus1=p4udm7597.1.2 bus2=p4ulv11032.1.2 switch=n enabled=y phases=2 Linecode=1P_OH_AL_4_Periwinkle_0_416_0_2_2_2_2

New Line.l(r:p4udm7597-p4udt2857lv) Units=km Length=0.0154445 bus1=p4udt2857lv.1.2 bus2=p4udm7597.1.2 switch=n enabled=y phases=2 Linecode=1P_OH_AL_2/0_Rucina_0_416_0_2_2_2_2

New Line.l(r:p4udm7599-p4ulv18436) Units=km Length=0.00956817 bus1=p4udm7599.1.2 bus2=p4ulv18436.1.2 switch=n enabled=y phases=2 Linecode=1P_OH_AL_2/0_Rucina_0_416_0_2_2_2_2

New Line.l(r:p4udm7599-p4udt2857lv) Units=km Length=0.062245100000000005 bus1=p4udt2857lv.1.2 bus2=p4udm7599.1.2 switch=n enabled=y phases=2 Linecode=1P_OH_AL_4/0_Zuzara_0_416_0_2_2_2_2

New Line.l(r:p4udm7601-p4ulv3045) Units=km Length=0.0370928 bus1=p4udm7601.1.2 bus2=p4ulv3045.1.2 switch=n enabled=y phases=2 Linecode=1P_OH_AL_4/0_Zuzara_0_416_0_2_2_2_2

New Line.l(r:p4udm7601-p4udt2858lv) Units=km Length=0.0183947 bus1=p4udt2858lv.1.2 bus2=p4udm7601.1.2 switch=n enabled=y phases=2 Linecode=1P_OH_AL_2/0_Rucina_0_416_0_2_2_2_2

New Line.l(r:p4udm7602-p4ulv32773) Units=km Length=0.0338817 bus1=p4udm7602.1.2 bus2=p4ulv32773.1.2 switch=n enabled=y phases=2 Linecode=1P_UG_AL_1/0_Brenau_0_416_0_2_2_2_2

New Line.l(r:p4udm7602-p4udt2858lv) Units=km Length=0.0275807 bus1=p4udt2858lv.1.2 bus2=p4udm7602.1.2 switch=n enabled=y phases=2 Linecode=1P_UG_AL_1/0_Brenau_0_416_0_2_2_2_2

New Line.l(r:p4udt2859lv-p4ulv3046) Units=km Length=0.0494838 bus1=p4udt2859lv.1.2 bus2=p4ulv3046.1.2 switch=n enabled=y phases=2 Linecode=1P_UG_AL_4/0_Sweetbriar_0_416_0_2_2_2_2

New Line.l(r:p4udt2862lv-p4ulv3050) Units=km Length=0.04600830000000001 bus1=p4udt2862lv.1.2 bus2=p4ulv3050.1.2 switch=n enabled=y phases=2 Linecode=1P_OH_AL_4/0_Zuzara_0_416_0_2_2_2_2

New Line.l(r:p4udt2862lv-p4ulv40777) Units=km Length=0.0630804 bus1=p4udt2862lv.1.2 bus2=p4ulv40777.1.2 switch=n enabled=y phases=2 Linecode=1P_OH_AL_4/0_Zuzara_0_416_0_2_2_2_2

New Line.l(r:p4udm7608-p4ulv37423) Units=km Length=0.0171708 bus1=p4udm7608.1.2 bus2=p4ulv37423.1.2 switch=n enabled=y phases=2 Linecode=1P_OH_AL_2/0_Rucina_0_416_0_2_2_2_2

New Line.l(r:p4udm7608-p4udt2862lv) Units=km Length=0.056551 bus1=p4udt2862lv.1.2 bus2=p4udm7608.1.2 switch=n enabled=y phases=2 Linecode=1P_OH_AL_4/0_Zuzara_0_416_0_2_2_2_2

New Line.l(r:p4udt3154lv-p4ulv3364) Units=km Length=0.013274 bus1=p4udt3154lv.1.2 bus2=p4ulv3364.1.2 switch=n enabled=y phases=2 Linecode=1P_OH_AL_2/0_Rucina_0_416_0_2_2_2_2

New Line.l(r:p4udt3154lv-p4ulv4610) Units=km Length=0.0149639 bus1=p4udt3154lv.1.2 bus2=p4ulv4610.1.2 switch=n enabled=y phases=2 Linecode=1P_OH_AL_2/0_Rucina_0_416_0_2_2_2_2

New Line.l(r:p4udt3154lv-p4ulv42350) Units=km Length=0.0145864 bus1=p4udt3154lv.1.2 bus2=p4ulv42350.1.2 switch=n enabled=y phases=2 Linecode=1P_OH_AL_2/0_Rucina_0_416_0_2_2_2_2

New Line.l(r:p4udm8549-p4ulv3446) Units=km Length=0.0159866 bus1=p4udm8549.1.2 bus2=p4ulv3446.1.2 switch=n enabled=y phases=2 Linecode=1P_OH_AL_2/0_Rucina_0_416_0_2_2_2_2

New Line.l(r:p4udm8549-p4udt3226lv) Units=km Length=0.0314154 bus1=p4udt3226lv.1.2 bus2=p4udm8549.1.2 switch=n enabled=y phases=2 Linecode=1P_OH_AL_4/0_Zuzara_0_416_0_2_2_2_2

New Line.l(r:p4udm8550-p4ulv37846) Units=km Length=0.0155616 bus1=p4udm8550.1.2 bus2=p4ulv37846.1.2 switch=n enabled=y phases=2 Linecode=1P_OH_AL_2/0_Rucina_0_416_0_2_2_2_2

New Line.l(r:p4udm8550-p4udt3226lv) Units=km Length=0.0348903 bus1=p4udt3226lv.1.2 bus2=p4udm8550.1.2 switch=n enabled=y phases=2 Linecode=1P_OH_AL_4/0_Zuzara_0_416_0_2_2_2_2

New Line.l(r:p4udm8551-p4ulv3447) Units=km Length=0.0158815 bus1=p4udm8551.1.2 bus2=p4ulv3447.1.2 switch=n enabled=y phases=2 Linecode=1P_OH_AL_2/0_Rucina_0_416_0_2_2_2_2

New Line.l(r:p4udm8551-p4udt3227lv) Units=km Length=0.054439 bus1=p4udt3227lv.1.2 bus2=p4udm8551.1.2 switch=n enabled=y phases=2 Linecode=1P_OH_AL_4/0_Zuzara_0_416_0_2_2_2_2

New Line.l(r:p4udm8552-p4ulv11035) Units=km Length=0.0137424 bus1=p4udm8552.1.2 bus2=p4ulv11035.1.2 switch=n enabled=y phases=2 Linecode=1P_OH_AL_2/0_Rucina_0_416_0_2_2_2_2

New Line.l(r:p4udm8552-p4udt3227lv) Units=km Length=0.0535639 bus1=p4udt3227lv.1.2 bus2=p4udm8552.1.2 switch=n enabled=y phases=2 Linecode=1P_OH_AL_4/0_Zuzara_0_416_0_2_2_2_2

New Line.l(r:p4udt3538lv-p4ulv18347) Units=km Length=0.0109116 bus1=p4udt3538lv.1.2 bus2=p4ulv18347.1.2 switch=n enabled=y phases=2 Linecode=1P_UG_AL_1/0_Brenau_0_416_0_2_2_2_2

New Line.l(r:p4udm9328-p4ulv3813) Units=km Length=0.0126635 bus1=p4udm9328.1.2 bus2=p4ulv3813.1.2 switch=n enabled=y phases=2 Linecode=1P_UG_AL_1/0_Brenau_0_416_0_2_2_2_2

New Line.l(r:p4udm9329-p4ulv6711) Units=km Length=0.0151447 bus1=p4udm9329.1.2 bus2=p4ulv6711.1.2 switch=n enabled=y phases=2 Linecode=1P_UG_AL_2/0_Converse_0_416_0_2_2_2_2

New Line.l(r:p4udm9331-p4ulv27177) Units=km Length=0.010833800000000001 bus1=p4udm9331.1.2 bus2=p4ulv27177.1.2 switch=n enabled=y phases=2 Linecode=1P_UG_AL_1/0_Brenau_0_416_0_2_2_2_2

New Line.l(r:p4udm9329-p4udm9331) Units=km Length=0.0134459 bus1=p4udm9329.1.2 bus2=p4udm9331.1.2 switch=n enabled=y phases=2 Linecode=1P_UG_AL_1/0_Brenau_0_416_0_2_2_2_2

New Line.l(r:p4udm9328-p4udm9329) Units=km Length=0.028183 bus1=p4udm9328.1.2 bus2=p4udm9329.1.2 switch=n enabled=y phases=2 Linecode=1P_UG_AL_4/0_Sweetbriar_0_416_0_2_2_2_2

New Line.l(r:p4udm9328-p4udt3538lv) Units=km Length=0.00861561 bus1=p4udt3538lv.1.2 bus2=p4udm9328.1.2 switch=n enabled=y phases=2 Linecode=1P_UG_AL_4/0_Sweetbriar_0_416_0_2_2_2_2

New Line.l(r:p4udm9332-p4ulv36500) Units=km Length=0.008550940000000002 bus1=p4udm9332.1.2 bus2=p4ulv36500.1.2 switch=n enabled=y phases=2 Linecode=1P_UG_AL_1/0_Brenau_0_416_0_2_2_2_2

New Line.l(r:p4udm9332-p4udt3538lv) Units=km Length=0.0728985 bus1=p4udt3538lv.1.2 bus2=p4udm9332.1.2 switch=n enabled=y phases=2 Linecode=1P_UG_AL_1/0_Brenau_0_416_0_2_2_2_2

New Line.l(r:p4udt3604lv-p4ulv3891) Units=km Length=0.07607690000000002 bus1=p4udt3604lv.1.2 bus2=p4ulv3891.1.2 switch=n enabled=y phases=2 Linecode=1P_OH_AL_4/0_Zuzara_0_416_0_2_2_2_2

New Line.l(r:p4udm9497-p4ulv9332) Units=km Length=0.0973684 bus1=p4udm9497.1.2 bus2=p4ulv9332.1.2 switch=n enabled=y phases=2 Linecode=1P_OH_AL_4/0_Zuzara_0_416_0_2_2_2_2

New Line.l(r:p4udm9497-p4udt3604lv) Units=km Length=0.0186604 bus1=p4udt3604lv.1.2 bus2=p4udm9497.1.2 switch=n enabled=y phases=2 Linecode=1P_OH_AL_2/0_Rucina_0_416_0_2_2_2_2

New Line.l(r:p4udm9502-p4ulv3893) Units=km Length=0.024905100000000003 bus1=p4udm9502.1.2 bus2=p4ulv3893.1.2 switch=n enabled=y phases=2 Linecode=1P_OH_AL_2/0_Rucina_0_416_0_2_2_2_2

New Line.l(r:p4udm9502-p4udt3606lv) Units=km Length=0.017903 bus1=p4udt3606lv.1.2 bus2=p4udm9502.1.2 switch=n enabled=y phases=2 Linecode=1P_OH_AL_2/0_Rucina_0_416_0_2_2_2_2

New Line.l(r:p4udm9503-p4ulv17144) Units=km Length=0.0179609 bus1=p4udm9503.1.2 bus2=p4ulv17144.1.2 switch=n enabled=y phases=2 Linecode=1P_OH_AL_2/0_Rucina_0_416_0_2_2_2_2

New Line.l(r:p4udm9503-p4udt3606lv) Units=km Length=0.0372869 bus1=p4udt3606lv.1.2 bus2=p4udm9503.1.2 switch=n enabled=y phases=2 Linecode=1P_OH_AL_4/0_Zuzara_0_416_0_2_2_2_2

New Line.l(r:p4udt3607lv-p4ulv3894) Units=km Length=0.12749 bus1=p4udt3607lv.1.2 bus2=p4ulv3894.1.2 switch=n enabled=y phases=2 Linecode=1P_OH_AL_4/0_Zuzara_0_416_0_2_2_2_2

New Line.l(r:p4udt3607lv-p4ulv36586) Units=km Length=0.108934 bus1=p4udt3607lv.1.2 bus2=p4ulv36586.1.2 switch=n enabled=y phases=2 Linecode=1P_OH_AL_4/0_Zuzara_0_416_0_2_2_2_2

New Line.l(r:p4udt3607lv-p4ulv42001) Units=km Length=0.0913005 bus1=p4udt3607lv.1.2 bus2=p4ulv42001.1.2 switch=n enabled=y phases=2 Linecode=1P_OH_AL_4/0_Zuzara_0_416_0_2_2_2_2

New Line.l(r:p4udm9505-p4ulv19670) Units=km Length=0.0359592 bus1=p4udm9505.1.2 bus2=p4ulv19670.1.2 switch=n enabled=y phases=2 Linecode=1P_OH_AL_4/0_Zuzara_0_416_0_2_2_2_2

New Line.l(r:p4udm9505-p4udt3607lv) Units=km Length=0.0182304 bus1=p4udt3607lv.1.2 bus2=p4udm9505.1.2 switch=n enabled=y phases=2 Linecode=1P_OH_AL_2/0_Rucina_0_416_0_2_2_2_2

New Line.l(r:p4udt3608lv-p4ulv3895) Units=km Length=0.0220267 bus1=p4udt3608lv.1.2 bus2=p4ulv3895.1.2 switch=n enabled=y phases=2 Linecode=1P_OH_AL_2/0_Rucina_0_416_0_2_2_2_2

New Line.l(r:p4udt3608lv-p4ulv9338) Units=km Length=0.021013 bus1=p4udt3608lv.1.2 bus2=p4ulv9338.1.2 switch=n enabled=y phases=2 Linecode=1P_OH_AL_2/0_Rucina_0_416_0_2_2_2_2

New Line.l(r:p4udt3608lv-p4ulv30289) Units=km Length=0.0212042 bus1=p4udt3608lv.1.2 bus2=p4ulv30289.1.2 switch=n enabled=y phases=2 Linecode=1P_OH_AL_2/0_Rucina_0_416_0_2_2_2_2

New Line.l(r:p4udt3973lv-p4ulv34085) Units=km Length=0.0568616 bus1=p4udt3973lv.1.2 bus2=p4ulv34085.1.2 switch=n enabled=y phases=2 Linecode=1P_OH_AL_4/0_Zuzara_0_416_0_2_2_2_2

New Line.l(r:p4udm10404-p4ulv4307) Units=km Length=0.0285463 bus1=p4udm10404.1.2 bus2=p4ulv4307.1.2 switch=n enabled=y phases=2 Linecode=1P_OH_AL_4/0_Zuzara_0_416_0_2_2_2_2

New Line.l(r:p4udm10404-p4udt3973lv) Units=km Length=0.0189185 bus1=p4udt3973lv.1.2 bus2=p4udm10404.1.2 switch=n enabled=y phases=2 Linecode=1P_OH_AL_2/0_Rucina_0_416_0_2_2_2_2
