New Line.l(r:p3udt203lv-p3ulv349) Units=km Length=0.0251335 bus1=p3udt203lv.1.2 bus2=p3ulv349.1.2 switch=n enabled=y phases=2 Linecode=1P_OH_AL_2/0_Rucina_0_416_0_2_2_2_2

New Line.l(r:p3udt205lv-p3ulv351) Units=km Length=0.0250637 bus1=p3udt205lv.1.2 bus2=p3ulv351.1.2 switch=n enabled=y phases=2 Linecode=1P_UG_AL_1/0_Brenau_0_416_0_2_2_2_2

New Line.l(r:p3udt205lv-p3ulv5067) Units=km Length=0.0335056 bus1=p3udt205lv.1.2 bus2=p3ulv5067.1.2 switch=n enabled=y phases=2 Linecode=1P_UG_AL_1/0_Brenau_0_416_0_2_2_2_2

New Line.l(r:p3udt205lv-p3ulv6660) Units=km Length=0.0381262 bus1=p3udt205lv.1.2 bus2=p3ulv6660.1.2 switch=n enabled=y phases=2 Linecode=1P_UG_AL_1/0_Brenau_0_416_0_2_2_2_2

New Line.l(r:p3udt205lv-p3ulv23031) Units=km Length=0.0272388 bus1=p3udt205lv.1.2 bus2=p3ulv23031.1.2 switch=n enabled=y phases=2 Linecode=1P_UG_AL_1/0_Brenau_0_416_0_2_2_2_2

New Line.l(r:p3udt205lv-p3ulv50230) Units=km Length=0.0135784 bus1=p3udt205lv.1.2 bus2=p3ulv50230.1.2 switch=n enabled=y phases=2 Linecode=1P_UG_AL_1/0_Brenau_0_416_0_2_2_2_2

New Line.l(r:p3udm612-p3ulv355) Units=km Length=0.0213801 bus1=p3udm612.1.2 bus2=p3ulv355.1.2 switch=n enabled=y phases=2 Linecode=1P_OH_AL_2/0_Rucina_0_416_0_2_2_2_2

New Line.l(r:p3udm612-p3udt209lv) Units=km Length=0.0138374 bus1=p3udt209lv.1.2 bus2=p3udm612.1.2 switch=n enabled=y phases=2 Linecode=1P_OH_AL_2/0_Rucina_0_416_0_2_2_2_2

New Line.l(r:p3udm613-p3ulv5075) Units=km Length=0.0219229 bus1=p3udm613.1.2 bus2=p3ulv5075.1.2 switch=n enabled=y phases=2 Linecode=1P_OH_AL_2/0_Rucina_0_416_0_2_2_2_2

New Line.l(r:p3udm613-p3udt209lv) Units=km Length=0.0171586 bus1=p3udt209lv.1.2 bus2=p3udm613.1.2 switch=n enabled=y phases=2 Linecode=1P_OH_AL_2/0_Rucina_0_416_0_2_2_2_2

New Line.l(r:p3udm614-p3ulv356) Units=km Length=0.0185616 bus1=p3udm614.1.2 bus2=p3ulv356.1.2 switch=n enabled=y phases=2 Linecode=1P_OH_AL_2/0_Rucina_0_416_0_2_2_2_2

New Line.l(r:p3udm614-p3ulv46470) Units=km Length=0.0122575 bus1=p3udm614.1.2 bus2=p3ulv46470.1.2 switch=n enabled=y phases=2 Linecode=1P_OH_AL_2/0_Rucina_0_416_0_2_2_2_2

New Line.l(r:p3udm614-p3udt210lv) Units=km Length=0.0163597 bus1=p3udt210lv.1.2 bus2=p3udm614.1.2 switch=n enabled=y phases=2 Linecode=1P_OH_AL_2/0_Rucina_0_416_0_2_2_2_2

New Line.l(r:p3udm616-p3ulv38557) Units=km Length=0.020794 bus1=p3udm616.1.2 bus2=p3ulv38557.1.2 switch=n enabled=y phases=2 Linecode=1P_OH_AL_2/0_Rucina_0_416_0_2_2_2_2

New Line.l(r:p3udm616-p3ulv75462) Units=km Length=0.00836876 bus1=p3udm616.1.2 bus2=p3ulv75462.1.2 switch=n enabled=y phases=2 Linecode=1P_OH_AL_2/0_Rucina_0_416_0_2_2_2_2

New Line.l(r:p3udm615-p3ulv6663) Units=km Length=0.016909 bus1=p3udm615.1.2 bus2=p3ulv6663.1.2 switch=n enabled=y phases=2 Linecode=1P_OH_AL_2/0_Rucina_0_416_0_2_2_2_2

New Line.l(r:p3udm615-p3udm616) Units=km Length=0.0597105 bus1=p3udm616.1.2 bus2=p3udm615.1.2 switch=n enabled=y phases=2 Linecode=1P_OH_AL_4/0_Zuzara_0_416_0_2_2_2_2

New Line.l(r:p3udm616-p3udt210lv) Units=km Length=0.0194443 bus1=p3udt210lv.1.2 bus2=p3udm616.1.2 switch=n enabled=y phases=2 Linecode=1P_OH_AL_2/0_Rucina_0_416_0_2_0_2_2_2

New Line.l(r:p3udt212lv-p3ulv37803) Units=km Length=0.0172481 bus1=p3udt212lv.1.2 bus2=p3ulv37803.1.2 switch=n enabled=y phases=2 Linecode=1P_UG_AL_1/0_Brenau_0_416_0_2_2_2_2

New Line.l(r:p3udm622-p3ulv358) Units=km Length=0.0168176 bus1=p3udm622.1.2 bus2=p3ulv358.1.2 switch=n enabled=y phases=2 Linecode=1P_UG_AL_4/0_Sweetbriar_0_416_0_2_2_2_2

New Line.l(r:p3udm622-p3udt212lv) Units=km Length=0.00933124 bus1=p3udt212lv.1.2 bus2=p3udm622.1.2 switch=n enabled=y phases=2 Linecode=1P_UG_AL_4/0_Sweetbriar_0_416_0_2_2_2_2

New Line.l(r:p3udt214lv-p3ulv360) Units=km Length=0.0175779 bus1=p3udt214lv.1.2 bus2=p3ulv360.1.2 switch=n enabled=y phases=2 Linecode=1P_OH_AL_2/0_Rucina_0_416_0_2_2_2_2

New Line.l(r:p3udt342lv-p3ulv488) Units=km Length=0.00543677 bus1=p3udt342lv.1.2 bus2=p3ulv488.1.2 switch=n enabled=y phases=2 Linecode=1P_OH_AL_2/0_Rucina_0_416_0_2_2_2_2

New Line.l(r:p3udt342lv-p3ulv20805) Units=km Length=0.0176168 bus1=p3udt342lv.1.2 bus2=p3ulv20805.1.2 switch=n enabled=y phases=2 Linecode=1P_OH_AL_2/0_Rucina_0_416_0_2_2_2_2

New Line.l(r:p3udt342lv-p3ulv62597) Units=km Length=0.031129200000000003 bus1=p3udt342lv.1.2 bus2=p3ulv62597.1.2 switch=n enabled=y phases=2 Linecode=1P_OH_AL_4/0_Zuzara_0_416_0_2_2_2_2

New Line.l(r:p3udt342lv-p3ulv66408) Units=km Length=0.04541 bus1=p3udt342lv.1.2 bus2=p3ulv66408.1.2 switch=n enabled=y phases=2 Linecode=1P_OH_AL_4/0_Zuzara_0_416_0_2_2_2_2

New Line.l(r:p3udt347lv-p3ulv493) Units=km Length=0.0427851 bus1=p3udt347lv.1.2 bus2=p3ulv493.1.2 switch=n enabled=y phases=2 Linecode=1P_OH_AL_4/0_Zuzara_0_416_0_2_2_2_2

New Line.l(r:p3udt347lv-p3ulv4419) Units=km Length=0.0393542 bus1=p3udt347lv.1.2 bus2=p3ulv4419.1.2 switch=n enabled=y phases=2 Linecode=1P_OH_AL_4/0_Zuzara_0_416_0_2_2_2_2

New Line.l(r:p3udt347lv-p3ulv72600) Units=km Length=0.041115000000000006 bus1=p3udt347lv.1.2 bus2=p3ulv72600.1.2 switch=n enabled=y phases=2 Linecode=1P_OH_AL_4/0_Zuzara_0_416_0_2_2_2_2

New Line.l(r:p3udm1070-p3ulv496) Units=km Length=0.0160315 bus1=p3udm1070.1.2 bus2=p3ulv496.1.2 switch=n enabled=y phases=2 Linecode=1P_UG_AL_1/0_Brenau_0_416_0_2_2_2_2

New Line.l(r:p3udm1070-p3udt350lv) Units=km Length=0.0387876 bus1=p3udt350lv.1.2 bus2=p3udm1070.1.2 switch=n enabled=y phases=2 Linecode=1P_UG_AL_1/0_Brenau_0_416_0_2_2_2_2

New Line.l(r:p3udm1072-p3ulv79511) Units=km Length=0.0156744 bus1=p3udm1072.1.2 bus2=p3ulv79511.1.2 switch=n enabled=y phases=2 Linecode=1P_UG_AL_1/0_Brenau_0_416_0_2_2_2_2

New Line.l(r:p3udm1071-p3ulv16219) Units=km Length=0.0142029 bus1=p3udm1071.1.2 bus2=p3ulv16219.1.2 switch=n enabled=y phases=2 Linecode=1P_UG_AL_1/0_Brenau_0_416_0_2_2_2_2

New Line.l(r:p3udm1071-p3udm1072) Units=km Length=0.0098211 bus1=p3udm1072.1.2 bus2=p3udm1071.1.2 switch=n enabled=y phases=2 Linecode=1P_UG_AL_1/0_Brenau_0_416_0_2_2_2_2

New Line.l(r:p3udm1072-p3udt350lv) Units=km Length=0.00980766 bus1=p3udt350lv.1.2 bus2=p3udm1072.1.2 switch=n enabled=y phases=2 Linecode=1P_UG_AL_4/0_Sweetbriar_0_416_0_2_2_2_2

New Line.l(r:p3udt351lv-p3ulv10749) Units=km Length=0.013271400000000001 bus1=p3udt351lv.1.2 bus2=p3ulv10749.1.2 switch=n enabled=y phases=2 Linecode=1P_UG_AL_1/0_Brenau_0_416_0_2_2_2_2

New Line.l(r:p3udt351lv-p3ulv69515) Units=km Length=0.0129173 bus1=p3udt351lv.1.2 bus2=p3ulv69515.1.2 switch=n enabled=y phases=2 Linecode=1P_UG_AL_1/0_Brenau_0_416_0_2_2_2_2

New Line.l(r:p3udm1073-p3ulv497) Units=km Length=0.019518400000000005 bus1=p3udm1073.1.2 bus2=p3ulv497.1.2 switch=n enabled=y phases=2 Linecode=1P_UG_AL_1/0_Brenau_0_416_0_2_2_2_2

New Line.l(r:p3udm1073-p3udt351lv) Units=km Length=0.00903675 bus1=p3udt351lv.1.2 bus2=p3udm1073.1.2 switch=n enabled=y phases=2 Linecode=1P_UG_AL_1/0_Brenau_0_416_0_2_2_2_2

New Line.l(r:p3udm1075-p3ulv29456) Units=km Length=0.0145713 bus1=p3udm1075.1.2 bus2=p3ulv29456.1.2 switch=n enabled=y phases=2 Linecode=1P_UG_AL_1/0_Brenau_0_416_0_2_2_2_2

New Line.l(r:p3udm1075-p3udt351lv) Units=km Length=0.0180827 bus1=p3udt351lv.1.2 bus2=p3udm1075.1.2 switch=n enabled=y phases=2 Linecode=1P_UG_AL_1/0_Brenau_0_416_0_2_2_2_2

New Line.l(r:p3udt352lv-p3ulv498) Units=km Length=0.0142322 bus1=p3udt352lv.1.2 bus2=p3ulv498.1.2 switch=n enabled=y phases=2 Linecode=1P_UG_AL_1/0_Brenau_0_416_0_2_2_2_2

New Line.l(r:p3udm1078-p3ulv10750) Units=km Length=0.014098 bus1=p3udm1078.1.2 bus2=p3ulv10750.1.2 switch=n enabled=y phases=2 Linecode=1P_UG_AL_1/0_Brenau_0_416_0_2_2_2_2

New Line.l(r:p3udm1078-p3udt352lv) Units=km Length=0.008101600000000002 bus1=p3udt352lv.1.2 bus2=p3udm1078.1.2 switch=n enabled=y phases=2 Linecode=1P_UG_AL_1/0_Brenau_0_416_0_2_2_2_2

New Line.l(r:p3udt355lv-p3ulv52658) Units=km Length=0.0210233 bus1=p3udt355lv.1.2 bus2=p3ulv52658.1.2 switch=n enabled=y phases=2 Linecode=1P_UG_AL_1/0_Brenau_0_416_0_2_2_2_2

New Line.l(r:p3udm1088-p3ulv501) Units=km Length=0.0131351 bus1=p3udm1088.1.2 bus2=p3ulv501.1.2 switch=n enabled=y phases=2 Linecode=1P_UG_AL_1/0_Brenau_0_416_0_2_2_2_2

New Line.l(r:p3udm1088-p3udt355lv) Units=km Length=0.00950946 bus1=p3udt355lv.1.2 bus2=p3udm1088.1.2 switch=n enabled=y phases=2 Linecode=1P_UG_AL_1/0_Brenau_0_416_0_2_2_2_2

New Line.l(r:p3udt356lv-p3ulv502) Units=km Length=0.0238239 bus1=p3udt356lv.1.2 bus2=p3ulv502.1.2 switch=n enabled=y phases=2 Linecode=1P_UG_AL_1/0_Brenau_0_416_0_2_2_2_2

New Line.l(r:p3udt356lv-p3ulv7625) Units=km Length=0.024412500000000004 bus1=p3udt356lv.1.2 bus2=p3ulv7625.1.2 switch=n enabled=y phases=2 Linecode=1P_UG_AL_1/0_Brenau_0_416_0_2_2_2_2

New Line.l(r:p3udt356lv-p3ulv74886) Units=km Length=0.0271738 bus1=p3udt356lv.1.2 bus2=p3ulv74886.1.2 switch=n enabled=y phases=2 Linecode=1P_UG_AL_1/0_Brenau_0_416_0_2_2_2_2

New Line.l(r:p3udm1092-p3ulv47361) Units=km Length=0.017 bus1=p3udm1092.1.2 bus2=p3ulv47361.1.2 switch=n enabled=y phases=2 Linecode=1P_UG_AL_1/0_Brenau_0_416_0_2_2_2_2

New Line.l(r:p3udm1092-p3udt356lv) Units=km Length=0.00852453 bus1=p3udt356lv.1.2 bus2=p3udm1092.1.2 switch=n enabled=y phases=2 Linecode=1P_UG_AL_1/0_Brenau_0_416_0_2_2_2_2

New Line.l(r:p3udm1094-p3ulv503) Units=km Length=0.0231249 bus1=p3udm1094.1.2 bus2=p3ulv503.1.2 switch=n enabled=y phases=2 Linecode=1P_UG_AL_1/0_Brenau_0_416_0_2_2_2_2

New Line.l(r:p3udm1094-p3udt357lv) Units=km Length=0.00953126 bus1=p3udt357lv.1.2 bus2=p3udm1094.1.2 switch=n enabled=y phases=2 Linecode=1P_UG_AL_1/0_Brenau_0_416_0_2_2_2_2

New Line.l(r:p3udm1095-p3ulv17028) Units=km Length=0.017472500000000002 bus1=p3udm1095.1.2 bus2=p3ulv17028.1.2 switch=n enabled=y phases=2 Linecode=1P_UG_AL_1/0_Brenau_0_416_0_2_2_2_2

New Line.l(r:p3udm1095-p3ulv23183) Units=km Length=0.0211544 bus1=p3udm1095.1.2 bus2=p3ulv23183.1.2 switch=n enabled=y phases=2 Linecode=1P_UG_AL_1/0_Brenau_0_416_0_2_2_2_2

New Line.l(r:p3udm1095-p3ulv56526) Units=km Length=0.021899 bus1=p3udm1095.1.2 bus2=p3ulv56526.1.2 switch=n enabled=y phases=2 Linecode=1P_UG_AL_1/0_Brenau_0_416_0_2_2_2_2

New Line.l(r:p3udm1095-p3udt357lv) Units=km Length=0.00953126 bus1=p3udt357lv.1.2 bus2=p3udm1095.1.2 switch=n enabled=y phases=2 Linecode=1P_UG_AL_4/0_Sweetbriar_0_416_0_2_2_2_2

New Line.l(r:p3udm1099-p3ulv20814) Units=km Length=0.0169311 bus1=p3udm1099.1.2 bus2=p3ulv20814.1.2 switch=n enabled=y phases=2 Linecode=1P_UG_AL_1/0_Brenau_0_416_0_2_2_2_2

New Line.l(r:p3udm1099-p3ulv77212) Units=km Length=0.0137075 bus1=p3udm1099.1.2 bus2=p3ulv77212.1.2 switch=n enabled=y phases=2 Linecode=1P_UG_AL_1/0_Brenau_0_416_0_2_2_2_2

New Line.l(r:p3udm1100-p3ulv47367) Units=km Length=0.0161504 bus1=p3udm1100.1.2 bus2=p3ulv47367.1.2 switch=n enabled=y phases=2 Linecode=1P_UG_AL_1/0_Brenau_0_416_0_2_2_2_2

New Line.l(r:p3udm1099-p3udm1100) Units=km Length=0.00630651 bus1=p3udm1099.1.2 bus2=p3udm1100.1.2 switch=n enabled=y phases=2 Linecode=1P_UG_AL_1/0_Brenau_0_416_0_2_2_2_2

New Line.l(r:p3udm1099-p3udt358lv) Units=km Length=0.00631468 bus1=p3udt358lv.1.2 bus2=p3udm1099.1.2 switch=n enabled=y phases=2 Linecode=1P_UG_AL_4/0_Sweetbriar_0_416_0_2_2_2_2

New Line.l(r:p3udm1101-p3ulv50376) Units=km Length=0.017052900000000003 bus1=p3udm1101.1.2 bus2=p3ulv50376.1.2 switch=n enabled=y phases=2 Linecode=1P_UG_AL_1/0_Brenau_0_416_0_2_2_2_2

New Line.l(r:p3udm1098-p3ulv504) Units=km Length=0.0157467 bus1=p3udm1098.1.2 bus2=p3ulv504.1.2 switch=n enabled=y phases=2 Linecode=1P_UG_AL_1/0_Brenau_0_416_0_2_2_2_2

New Line.l(r:p3udm1098-p3udm1101) Units=km Length=0.00719242 bus1=p3udm1101.1.2 bus2=p3udm1098.1.2 switch=n enabled=y phases=2 Linecode=1P_UG_AL_1/0_Brenau_0_416_0_2_2_2_2

New Line.l(r:p3udm1101-p3udt358lv) Units=km Length=0.0129384 bus1=p3udt358lv.1.2 bus2=p3udm1101.1.2 switch=n enabled=y phases=2 Linecode=1P_UG_AL_4/0_Sweetbriar_0_416_0_2_2_2_2

New Line.l(r:p3udm1109-p3ulv506) Units=km Length=0.0162003 bus1=p3udm1109.1.2 bus2=p3ulv506.1.2 switch=n enabled=y phases=2 Linecode=1P_UG_AL_4/0_Sweetbriar_0_416_0_2_2_2_2

New Line.l(r:p3udm1109-p3ulv26429) Units=km Length=0.013960000000000002 bus1=p3udm1109.1.2 bus2=p3ulv26429.1.2 switch=n enabled=y phases=2 Linecode=1P_UG_AL_4/0_Sweetbriar_0_416_0_2_2_2_2

New Line.l(r:p3udm1109-p3udt360lv) Units=km Length=0.0194128 bus1=p3udt360lv.1.2 bus2=p3udm1109.1.2 switch=n enabled=y phases=2 Linecode=1P_UG_AL_4/0_Sweetbriar_0_416_0_2_2_2_2

New Line.l(r:p3udm1111-p3ulv77215) Units=km Length=0.0137807 bus1=p3udm1111.1.2 bus2=p3ulv77215.1.2 switch=n enabled=y phases=2 Linecode=1P_UG_AL_1/0_Brenau_0_416_0_2_2_2_2

New Line.l(r:p3udm1111-p3udt360lv) Units=km Length=0.029127800000000002 bus1=p3udt360lv.1.2 bus2=p3udm1111.1.2 switch=n enabled=y phases=2 Linecode=1P_UG_AL_1/0_Brenau_0_416_0_2_2_2_2

New Line.l(r:p3udm1112-p3ulv507) Units=km Length=0.0140894 bus1=p3udm1112.1.2 bus2=p3ulv507.1.2 switch=n enabled=y phases=2 Linecode=1P_UG_AL_1/0_Brenau_0_416_0_2_2_2_2

New Line.l(r:p3udm1112-p3ulv60297) Units=km Length=0.0181656 bus1=p3udm1112.1.2 bus2=p3ulv60297.1.2 switch=n enabled=y phases=2 Linecode=1P_UG_AL_1/0_Brenau_0_416_0_2_2_2_2

New Line.l(r:p3udm1112-p3ulv79519) Units=km Length=0.0132505 bus1=p3udm1112.1.2 bus2=p3ulv79519.1.2 switch=n enabled=y phases=2 Linecode=1P_UG_AL_1/0_Brenau_0_416_0_2_2_2_2

New Line.l(r:p3udm1112-p3udt361lv) Units=km Length=0.009866980000000001 bus1=p3udt361lv.1.2 bus2=p3udm1112.1.2 switch=n enabled=y phases=2 Linecode=1P_UG_AL_4/0_Sweetbriar_0_416_0_2_2_2_2

New Line.l(r:p3udm1114-p3ulv50383) Units=km Length=0.0133894 bus1=p3udm1114.1.2 bus2=p3ulv50383.1.2 switch=n enabled=y phases=2 Linecode=1P_UG_AL_1/0_Brenau_0_416_0_2_2_2_2

New Line.l(r:p3udm1113-p3ulv34154) Units=km Length=0.0179828 bus1=p3udm1113.1.2 bus2=p3ulv34154.1.2 switch=n enabled=y phases=2 Linecode=1P_UG_AL_1/0_Brenau_0_416_0_2_2_2_2

New Line.l(r:p3udm1113-p3ulv52664) Units=km Length=0.0147247 bus1=p3udm1113.1.2 bus2=p3ulv52664.1.2 switch=n enabled=y phases=2 Linecode=1P_UG_AL_1/0_Brenau_0_416_0_2_2_2_2

New Line.l(r:p3udm1113-p3udm1114) Units=km Length=0.009866980000000001 bus1=p3udm1114.1.2 bus2=p3udm1113.1.2 switch=n enabled=y phases=2 Linecode=1P_UG_AL_4/0_Sweetbriar_0_416_0_2_2_2_2

New Line.l(r:p3udm1114-p3udt361lv) Units=km Length=0.00986559 bus1=p3udt361lv.1.2 bus2=p3udm1114.1.2 switch=n enabled=y phases=2 Linecode=1P_UG_AL_4/0_Sweetbriar_0_416_0_2_2_2_2

New Line.l(r:p3udt942lv-p3ulv30075) Units=km Length=0.00977286 bus1=p3udt942lv.1.2 bus2=p3ulv30075.1.2 switch=n enabled=y phases=2 Linecode=1P_UG_AL_1/0_Brenau_0_416_0_2_2_2_2

New Line.l(r:p3udm3217-p3ulv1105) Units=km Length=0.0146295 bus1=p3udm3217.1.2 bus2=p3ulv1105.1.2 switch=n enabled=y phases=2 Linecode=1P_UG_AL_1/0_Brenau_0_416_0_2_2_2_2

New Line.l(r:p3udm3217-p3udt942lv) Units=km Length=0.0485009 bus1=p3udt942lv.1.2 bus2=p3udm3217.1.2 switch=n enabled=y phases=2 Linecode=1P_UG_AL_1/0_Brenau_0_416_0_2_2_2_2

New Line.l(r:p3udt945lv-p3ulv1108) Units=km Length=0.06064420000000001 bus1=p3udt945lv.1.2 bus2=p3ulv1108.1.2 switch=n enabled=y phases=2 Linecode=1P_OH_AL_4/0_Zuzara_0_416_0_2_2_2_2

New Line.l(r:p3udm3222-p3ulv1109) Units=km Length=0.0213499 bus1=p3udm3222.1.2 bus2=p3ulv1109.1.2 switch=n enabled=y phases=2 Linecode=1P_OH_AL_2/0_Rucina_0_416_0_2_2_2_2

New Line.l(r:p3udm3222-p3ulv10573) Units=km Length=0.0204024 bus1=p3udm3222.1.2 bus2=p3ulv10573.1.2 switch=n enabled=y phases=2 Linecode=1P_OH_AL_2/0_Rucina_0_416_0_2_2_2_2

New Line.l(r:p3udm3222-p3udt946lv) Units=km Length=0.0121285 bus1=p3udt946lv.1.2 bus2=p3udm3222.1.2 switch=n enabled=y phases=2 Linecode=1P_OH_AL_2/0_Rucina_0_416_0_2_2_2_2

New Line.l(r:p3udm3224-p3ulv77800) Units=km Length=0.0229419 bus1=p3udm3224.1.2 bus2=p3ulv77800.1.2 switch=n enabled=y phases=2 Linecode=1P_OH_AL_2/0_Rucina_0_416_0_2_2_2_2

New Line.l(r:p3udm3224-p3udt946lv) Units=km Length=0.0195635 bus1=p3udt946lv.1.2 bus2=p3udm3224.1.2 switch=n enabled=y phases=2 Linecode=1P_OH_AL_2/0_Rucina_0_416_0_2_2_2_2

New Line.l(r:p3udt949lv-p3ulv34780) Units=km Length=0.0156958 bus1=p3udt949lv.1.2 bus2=p3ulv34780.1.2 switch=n enabled=y phases=2 Linecode=1P_UG_AL_1/0_Brenau_0_416_0_2_2_2_2

New Line.l(r:p3udt949lv-p3ulv45060) Units=km Length=0.0159078 bus1=p3udt949lv.1.2 bus2=p3ulv45060.1.2 switch=n enabled=y phases=2 Linecode=1P_UG_AL_1/0_Brenau_0_416_0_2_2_2_2

New Line.l(r:p3udm3232-p3ulv26430) Units=km Length=0.0158341 bus1=p3udm3232.1.2 bus2=p3ulv26430.1.2 switch=n enabled=y phases=2 Linecode=1P_UG_AL_1/0_Brenau_0_416_0_2_2_2_2

New Line.l(r:p3udm3231-p3ulv1112) Units=km Length=0.0160247 bus1=p3udm3231.1.2 bus2=p3ulv1112.1.2 switch=n enabled=y phases=2 Linecode=1P_UG_AL_1/0_Brenau_0_416_0_2_2_2_2

New Line.l(r:p3udm3231-p3udm3232) Units=km Length=0.00975174 bus1=p3udm3232.1.2 bus2=p3udm3231.1.2 switch=n enabled=y phases=2 Linecode=1P_UG_AL_1/0_Brenau_0_416_0_2_2_2_2

New Line.l(r:p3udm3232-p3udt949lv) Units=km Length=0.009149700000000002 bus1=p3udt949lv.1.2 bus2=p3udm3232.1.2 switch=n enabled=y phases=2 Linecode=1P_UG_AL_4/0_Sweetbriar_0_416_0_2_2_2_2

New Line.l(r:p3udm3235-p3ulv46610) Units=km Length=0.0145651 bus1=p3udm3235.1.2 bus2=p3ulv46610.1.2 switch=n enabled=y phases=2 Linecode=1P_UG_AL_1/0_Brenau_0_416_0_2_2_2_2

New Line.l(r:p3udm3235-p3udt949lv) Units=km Length=0.009149700000000002 bus1=p3udt949lv.1.2 bus2=p3udm3235.1.2 switch=n enabled=y phases=2 Linecode=1P_UG_AL_1/0_Brenau_0_416_0_2_2_2_2

New Line.l(r:p3udt1085lv-p3ulv1251) Units=km Length=0.0240435 bus1=p3udt1085lv.1.2 bus2=p3ulv1251.1.2 switch=n enabled=y phases=2 Linecode=1P_OH_AL_2/0_Rucina_0_416_0_2_2_2_2

New Line.l(r:p3udt1086lv-p3ulv1252) Units=km Length=0.018610000000000005 bus1=p3udt1086lv.1.2 bus2=p3ulv1252.1.2 switch=n enabled=y phases=2 Linecode=1P_OH_AL_2/0_Rucina_0_416_0_2_2_2_2

New Line.l(r:p3udm3698-p3ulv1255) Units=km Length=0.030813700000000003 bus1=p3udm3698.1.2 bus2=p3ulv1255.1.2 switch=n enabled=y phases=2 Linecode=1P_OH_AL_4/0_Zuzara_0_416_0_2_2_2_2

New Line.l(r:p3udm3698-p3udt1089lv) Units=km Length=0.00988383 bus1=p3udt1089lv.1.2 bus2=p3udm3698.1.2 switch=n enabled=y phases=2 Linecode=1P_OH_AL_2/0_Rucina_0_416_0_2_2_2_2

New Line.l(r:p3udm3699-p3ulv38694) Units=km Length=0.0363003 bus1=p3udm3699.1.2 bus2=p3ulv38694.1.2 switch=n enabled=y phases=2 Linecode=1P_OH_AL_4/0_Zuzara_0_416_0_2_2_2_2

New Line.l(r:p3udm3699-p3udt1089lv) Units=km Length=0.00725385 bus1=p3udt1089lv.1.2 bus2=p3udm3699.1.2 switch=n enabled=y phases=2 Linecode=1P_OH_AL_2/0_Rucina_0_416_0_2_2_2_2

New Line.l(r:p3udm3701-p3ulv1257) Units=km Length=0.0155628 bus1=p3udm3701.1.2 bus2=p3ulv1257.1.2 switch=n enabled=y phases=2 Linecode=1P_UG_AL_4/0_Sweetbriar_0_416_0_2_2_2_2

New Line.l(r:p3udm3701-p3udt1091lv) Units=km Length=0.0680656 bus1=p3udt1091lv.1.2 bus2=p3udm3701.1.2 switch=n enabled=y phases=2 Linecode=1P_UG_AL_4/0_Sweetbriar_0_416_0_2_2_2_2

New Line.l(r:p3udm3702-p3ulv12303) Units=km Length=0.01803 bus1=p3udm3702.1.2 bus2=p3ulv12303.1.2 switch=n enabled=y phases=2 Linecode=1P_UG_AL_1/0_Brenau_0_416_0_2_2_2_2

New Line.l(r:p3udm3702-p3udt1091lv) Units=km Length=0.0193985 bus1=p3udt1091lv.1.2 bus2=p3udm3702.1.2 switch=n enabled=y phases=2 Linecode=1P_UG_AL_1/0_Brenau_0_416_0_2_2_2_2

New Line.l(r:p3udm3703-p3ulv1258) Units=km Length=0.0131089 bus1=p3udm3703.1.2 bus2=p3ulv1258.1.2 switch=n enabled=y phases=2 Linecode=1P_UG_AL_1/0_Brenau_0_416_0_2_2_2_2

New Line.l(r:p3udm3703-p3ulv39519) Units=km Length=0.0145775 bus1=p3udm3703.1.2 bus2=p3ulv39519.1.2 switch=n enabled=y phases=2 Linecode=1P_UG_AL_1/0_Brenau_0_416_0_2_2_2_2

New Line.l(r:p3udm3703-p3udt1092lv) Units=km Length=0.00937853 bus1=p3udt1092lv.1.2 bus2=p3udm3703.1.2 switch=n enabled=y phases=2 Linecode=1P_UG_AL_4/0_Sweetbriar_0_416_0_2_2_2_2

New Line.l(r:p3udm3704-p3ulv27948) Units=km Length=0.0170958 bus1=p3udm3704.1.2 bus2=p3ulv27948.1.2 switch=n enabled=y phases=2 Linecode=1P_UG_AL_1/0_Brenau_0_416_0_2_2_2_2

New Line.l(r:p3udm3704-p3udt1092lv) Units=km Length=0.00936854 bus1=p3udt1092lv.1.2 bus2=p3udm3704.1.2 switch=n enabled=y phases=2 Linecode=1P_UG_AL_1/0_Brenau_0_416_0_2_2_2_2

New Line.l(r:p3udm3706-p3ulv1259) Units=km Length=0.0173178 bus1=p3udm3706.1.2 bus2=p3ulv1259.1.2 switch=n enabled=y phases=2 Linecode=1P_UG_AL_4/0_Sweetbriar_0_416_0_2_2_2_2

New Line.l(r:p3udm3706-p3udt1093lv) Units=km Length=0.028975200000000003 bus1=p3udt1093lv.1.2 bus2=p3udm3706.1.2 switch=n enabled=y phases=2 Linecode=1P_UG_AL_4/0_Sweetbriar_0_416_0_2_2_2_2

New Line.l(r:p3udm3707-p3ulv64115) Units=km Length=0.016671 bus1=p3udm3707.1.2 bus2=p3ulv64115.1.2 switch=n enabled=y phases=2 Linecode=1P_UG_AL_1/0_Brenau_0_416_0_2_2_2_2

New Line.l(r:p3udm3707-p3udt1093lv) Units=km Length=0.0289754 bus1=p3udt1093lv.1.2 bus2=p3udm3707.1.2 switch=n enabled=y phases=2 Linecode=1P_UG_AL_1/0_Brenau_0_416_0_2_2_2_2

New Line.l(r:p3udt1095lv-p3ulv36454) Units=km Length=0.0225822 bus1=p3udt1095lv.1.2 bus2=p3ulv36454.1.2 switch=n enabled=y phases=2 Linecode=1P_UG_AL_1/0_Brenau_0_416_0_2_2_2_2

New Line.l(r:p3udm3711-p3ulv1261) Units=km Length=0.0121701 bus1=p3udm3711.1.2 bus2=p3ulv1261.1.2 switch=n enabled=y phases=2 Linecode=1P_UG_AL_1/0_Brenau_0_416_0_2_2_2_2

New Line.l(r:p3udm3711-p3udt1095lv) Units=km Length=0.0695902 bus1=p3udt1095lv.1.2 bus2=p3udm3711.1.2 switch=n enabled=y phases=2 Linecode=1P_UG_AL_1/0_Brenau_0_416_0_2_2_2_2

New Line.l(r:p3udm3712-p3ulv17776) Units=km Length=0.0221464 bus1=p3udm3712.1.2 bus2=p3ulv17776.1.2 switch=n enabled=y phases=2 Linecode=1P_UG_AL_1/0_Brenau_0_416_0_2_2_2_2

New Line.l(r:p3udm3714-p3ulv63401) Units=km Length=0.0185545 bus1=p3udm3714.1.2 bus2=p3ulv63401.1.2 switch=n enabled=y phases=2 Linecode=1P_UG_AL_4/0_Sweetbriar_0_416_0_2_2_2_2

New Line.l(r:p3udm3712-p3udm3714) Units=km Length=0.00953363 bus1=p3udm3712.1.2 bus2=p3udm3714.1.2 switch=n enabled=y phases=2 Linecode=1P_UG_AL_4/0_Sweetbriar_0_416_0_2_2_2_2

New Line.l(r:p3udm3712-p3udt1095lv) Units=km Length=0.00953363 bus1=p3udt1095lv.1.2 bus2=p3udm3712.1.2 switch=n enabled=y phases=2 Linecode=1P_UG_AL_4/0_Sweetbriar_0_416_0_2_2_2_2

New Line.l(r:p3udt1096lv-p3ulv72603) Units=km Length=0.0158975 bus1=p3udt1096lv.1.2 bus2=p3ulv72603.1.2 switch=n enabled=y phases=2 Linecode=1P_UG_AL_1/0_Brenau_0_416_0_2_2_2_2

New Line.l(r:p3udm3715-p3ulv1262) Units=km Length=0.0176824 bus1=p3udm3715.1.2 bus2=p3ulv1262.1.2 switch=n enabled=y phases=2 Linecode=1P_UG_AL_1/0_Brenau_0_416_0_2_2_2_2

New Line.l(r:p3udm3715-p3udt1096lv) Units=km Length=0.008883610000000002 bus1=p3udt1096lv.1.2 bus2=p3udm3715.1.2 switch=n enabled=y phases=2 Linecode=1P_UG_AL_1/0_Brenau_0_416_0_2_2_2_2

New Line.l(r:p3udm3716-p3ulv9920) Units=km Length=0.0144406 bus1=p3udm3716.1.2 bus2=p3ulv9920.1.2 switch=n enabled=y phases=2 Linecode=1P_UG_AL_1/0_Brenau_0_416_0_2_2_2_2

New Line.l(r:p3udm3716-p3udt1096lv) Units=km Length=0.00888978 bus1=p3udt1096lv.1.2 bus2=p3udm3716.1.2 switch=n enabled=y phases=2 Linecode=1P_UG_AL_1/0_Brenau_0_416_0_2_2_2_2

New Line.l(r:p3udt1097lv-p3ulv1263) Units=km Length=0.016467 bus1=p3udt1097lv.1.2 bus2=p3ulv1263.1.2 switch=n enabled=y phases=2 Linecode=1P_UG_AL_1/0_Brenau_0_416_0_2_2_2_2

New Line.l(r:p3udt1097lv-p3ulv25610) Units=km Length=0.019648 bus1=p3udt1097lv.1.2 bus2=p3ulv25610.1.2 switch=n enabled=y phases=2 Linecode=1P_UG_AL_1/0_Brenau_0_416_0_2_2_2_2

New Line.l(r:p3udt1097lv-p3ulv77946) Units=km Length=0.0170019 bus1=p3udt1097lv.1.2 bus2=p3ulv77946.1.2 switch=n enabled=y phases=2 Linecode=1P_UG_AL_1/0_Brenau_0_416_0_2_2_2_2

New Line.l(r:p3udm3719-p3ulv6024) Units=km Length=0.018258 bus1=p3udm3719.1.2 bus2=p3ulv6024.1.2 switch=n enabled=y phases=2 Linecode=1P_UG_AL_1/0_Brenau_0_416_0_2_2_2_2

New Line.l(r:p3udm3721-p3ulv34926) Units=km Length=0.0135034 bus1=p3udm3721.1.2 bus2=p3ulv34926.1.2 switch=n enabled=y phases=2 Linecode=1P_UG_AL_1/0_Brenau_0_416_0_2_2_2_2

New Line.l(r:p3udm3719-p3udm3721) Units=km Length=0.00930476 bus1=p3udm3719.1.2 bus2=p3udm3721.1.2 switch=n enabled=y phases=2 Linecode=1P_UG_AL_1/0_Brenau_0_416_0_2_2_2_2

New Line.l(r:p3udm3719-p3udt1097lv) Units=km Length=0.0161301 bus1=p3udt1097lv.1.2 bus2=p3udm3719.1.2 switch=n enabled=y phases=2 Linecode=1P_UG_AL_4/0_Sweetbriar_0_416_0_2_2_2_2

New Line.l(r:p3udm3722-p3ulv47368) Units=km Length=0.0169802 bus1=p3udm3722.1.2 bus2=p3ulv47368.1.2 switch=n enabled=y phases=2 Linecode=1P_UG_AL_1/0_Brenau_0_416_0_2_2_2_2

New Line.l(r:p3udm3722-p3udt1097lv) Units=km Length=0.0239481 bus1=p3udt1097lv.1.2 bus2=p3udm3722.1.2 switch=n enabled=y phases=2 Linecode=1P_UG_AL_1/0_Brenau_0_416_0_2_2_2_2

New Line.l(r:p3udt1098lv-p3ulv1264) Units=km Length=0.016679700000000002 bus1=p3udt1098lv.1.2 bus2=p3ulv1264.1.2 switch=n enabled=y phases=2 Linecode=1P_UG_AL_1/0_Brenau_0_416_0_2_2_2_2

New Line.l(r:p3udm3725-p3ulv48129) Units=km Length=0.0168311 bus1=p3udm3725.1.2 bus2=p3ulv48129.1.2 switch=n enabled=y phases=2 Linecode=1P_UG_AL_1/0_Brenau_0_416_0_2_2_2_2

New Line.l(r:p3udm3725-p3udt1098lv) Units=km Length=0.009866980000000001 bus1=p3udt1098lv.1.2 bus2=p3udm3725.1.2 switch=n enabled=y phases=2 Linecode=1P_UG_AL_1/0_Brenau_0_416_0_2_2_2_2

New Line.l(r:p3udm3726-p3ulv52662) Units=km Length=0.014052400000000001 bus1=p3udm3726.1.2 bus2=p3ulv52662.1.2 switch=n enabled=y phases=2 Linecode=1P_UG_AL_1/0_Brenau_0_416_0_2_2_2_2

New Line.l(r:p3udm3726-p3ulv64894) Units=km Length=0.0172623 bus1=p3udm3726.1.2 bus2=p3ulv64894.1.2 switch=n enabled=y phases=2 Linecode=1P_UG_AL_1/0_Brenau_0_416_0_2_2_2_2

New Line.l(r:p3udm3726-p3udt1098lv) Units=km Length=0.009866980000000001 bus1=p3udt1098lv.1.2 bus2=p3udm3726.1.2 switch=n enabled=y phases=2 Linecode=1P_UG_AL_4/0_Sweetbriar_0_416_0_2_2_2_2

New Line.l(r:p3udt1702lv-p3ulv1893) Units=km Length=0.021173 bus1=p3udt1702lv.1.2 bus2=p3ulv1893.1.2 switch=n enabled=y phases=2 Linecode=1P_OH_AL_2/0_Rucina_0_416_0_2_2_2_2

New Line.l(r:p3udm5865-p3ulv19905) Units=km Length=0.020590600000000004 bus1=p3udm5865.1.2 bus2=p3ulv19905.1.2 switch=n enabled=y phases=2 Linecode=1P_OH_AL_2/0_Rucina_0_416_0_2_2_2_2

New Line.l(r:p3udm5865-p3ulv61698) Units=km Length=0.04676410000000001 bus1=p3udm5865.1.2 bus2=p3ulv61698.1.2 switch=n enabled=y phases=2 Linecode=1P_OH_AL_4/0_Zuzara_0_416_0_2_2_2_2

New Line.l(r:p3udm5865-p3udt1702lv) Units=km Length=0.019617800000000005 bus1=p3udt1702lv.1.2 bus2=p3udm5865.1.2 switch=n enabled=y phases=2 Linecode=1P_OH_AL_2/0_Rucina_0_416_0_2_2_2_2

New Line.l(r:p3udm5867-p3ulv74743) Units=km Length=0.0366723 bus1=p3udm5867.1.2 bus2=p3ulv74743.1.2 switch=n enabled=y phases=2 Linecode=1P_OH_AL_4/0_Zuzara_0_416_0_2_2_2_2

New Line.l(r:p3udm5867-p3udt1702lv) Units=km Length=0.0392539 bus1=p3udt1702lv.1.2 bus2=p3udm5867.1.2 switch=n enabled=y phases=2 Linecode=1P_OH_AL_4/0_Zuzara_0_416_0_2_2_2_2

New Line.l(r:p3udt1822lv-p3ulv31773) Units=km Length=0.00864893 bus1=p3udt1822lv.1.2 bus2=p3ulv31773.1.2 switch=n enabled=y phases=2 Linecode=1P_OH_AL_2/0_Rucina_0_416_0_2_2_2_2

New Line.l(r:p3udm6252-p3ulv2027) Units=km Length=0.0263498 bus1=p3udm6252.1.2 bus2=p3ulv2027.1.2 switch=n enabled=y phases=2 Linecode=1P_OH_AL_2/0_Rucina_0_416_0_2_2_2_2

New Line.l(r:p3udm6252-p3udt1822lv) Units=km Length=0.0158642 bus1=p3udt1822lv.1.2 bus2=p3udm6252.1.2 switch=n enabled=y phases=2 Linecode=1P_OH_AL_2/0_Rucina_0_416_0_2_2_2_2

New Line.l(r:p3udm6253-p3ulv26407) Units=km Length=0.0239093 bus1=p3udm6253.1.2 bus2=p3ulv26407.1.2 switch=n enabled=y phases=2 Linecode=1P_OH_AL_2/0_Rucina_0_416_0_2_2_2_2

New Line.l(r:p3udm6253-p3udt1822lv) Units=km Length=0.0158658 bus1=p3udt1822lv.1.2 bus2=p3udm6253.1.2 switch=n enabled=y phases=2 Linecode=1P_OH_AL_2/0_Rucina_0_416_0_2_2_2_2

New Line.l(r:p3udt1824lv-p3ulv2029) Units=km Length=0.045822400000000006 bus1=p3udt1824lv.1.2 bus2=p3ulv2029.1.2 switch=n enabled=y phases=2 Linecode=1P_OH_AL_4/0_Zuzara_0_416_0_2_2_2_2

New Line.l(r:p3udt1824lv-p3ulv71121) Units=km Length=0.043920600000000004 bus1=p3udt1824lv.1.2 bus2=p3ulv71121.1.2 switch=n enabled=y phases=2 Linecode=1P_OH_AL_4/0_Zuzara_0_416_0_2_2_2_2

New Line.l(r:p3udt1825lv-p3ulv2030) Units=km Length=0.024028900000000002 bus1=p3udt1825lv.1.2 bus2=p3ulv2030.1.2 switch=n enabled=y phases=2 Linecode=1P_OH_AL_2/0_Rucina_0_416_0_2_2_2_2

New Line.l(r:p3udt1832lv-p3ulv66416) Units=km Length=0.0220377 bus1=p3udt1832lv.1.2 bus2=p3ulv66416.1.2 switch=n enabled=y phases=2 Linecode=1P_UG_AL_1/0_Brenau_0_416_0_2_2_2_2

New Line.l(r:p3udm6274-p3ulv2037) Units=km Length=0.0102285 bus1=p3udm6274.1.2 bus2=p3ulv2037.1.2 switch=n enabled=y phases=2 Linecode=1P_UG_AL_1/0_Brenau_0_416_0_2_2_2_2

New Line.l(r:p3udm6274-p3udt1832lv) Units=km Length=0.00952568 bus1=p3udt1832lv.1.2 bus2=p3udm6274.1.2 switch=n enabled=y phases=2 Linecode=1P_UG_AL_1/0_Brenau_0_416_0_2_2_2_2

New Line.l(r:p3udm6275-p3ulv26420) Units=km Length=0.0199613 bus1=p3udm6275.1.2 bus2=p3ulv26420.1.2 switch=n enabled=y phases=2 Linecode=1P_UG_AL_1/0_Brenau_0_416_0_2_2_2_2

New Line.l(r:p3udm6275-p3udt1832lv) Units=km Length=0.00953019 bus1=p3udt1832lv.1.2 bus2=p3udm6275.1.2 switch=n enabled=y phases=2 Linecode=1P_UG_AL_1/0_Brenau_0_416_0_2_2_2_2

New Line.l(r:p3udt1833lv-p3ulv58843) Units=km Length=0.0115795 bus1=p3udt1833lv.1.2 bus2=p3ulv58843.1.2 switch=n enabled=y phases=2 Linecode=1P_UG_AL_2/0_Converse_0_416_0_2_2_2_2

New Line.l(r:p3udm6277-p3ulv2038) Units=km Length=0.0155034 bus1=p3udm6277.1.2 bus2=p3ulv2038.1.2 switch=n enabled=y phases=2 Linecode=1P_UG_AL_1/0_Brenau_0_416_0_2_2_2_2

New Line.l(r:p3udm6277-p3udt1833lv) Units=km Length=0.00960002 bus1=p3udt1833lv.1.2 bus2=p3udm6277.1.2 switch=n enabled=y phases=2 Linecode=1P_UG_AL_1/0_Brenau_0_416_0_2_2_2_2

New Line.l(r:p3udm6278-p3ulv6015) Units=km Length=0.0168014 bus1=p3udm6278.1.2 bus2=p3ulv6015.1.2 switch=n enabled=y phases=2 Linecode=1P_UG_AL_1/0_Brenau_0_416_0_2_2_2_2

New Line.l(r:p3udm6278-p3udt1833lv) Units=km Length=0.00960002 bus1=p3udt1833lv.1.2 bus2=p3udm6278.1.2 switch=n enabled=y phases=2 Linecode=1P_UG_AL_1/0_Brenau_0_416_0_2_2_2_2

New Line.l(r:p3udt1834lv-p3ulv46602) Units=km Length=0.0272347 bus1=p3udt1834lv.1.2 bus2=p3ulv46602.1.2 switch=n enabled=y phases=2 Linecode=1P_UG_AL_1/0_Brenau_0_416_0_2_2_2_2

New Line.l(r:p3udm6280-p3ulv2039) Units=km Length=0.0177079 bus1=p3udm6280.1.2 bus2=p3ulv2039.1.2 switch=n enabled=y phases=2 Linecode=1P_UG_AL_1/0_Brenau_0_416_0_2_2_2_2
