New Line.l(r:p4udm258-p4ulv107) Units=km Length=0.0198078 bus1=p4udm258.1.2 bus2=p4ulv107.1.2 switch=n enabled=y phases=2 Linecode=1P_OH_AL_2/0_Rucina_0_416_0_2_2_2_2

New Line.l(r:p4udm258-p4udt101lv) Units=km Length=0.027678 bus1=p4udt101lv.1.2 bus2=p4udm258.1.2 switch=n enabled=y phases=2 Linecode=1P_OH_AL_4/0_Zuzara_0_416_0_2_2_2_2

New Line.l(r:p4udm259-p4ulv29873) Units=km Length=0.0206007 bus1=p4udm259.1.2 bus2=p4ulv29873.1.2 switch=n enabled=y phases=2 Linecode=1P_OH_AL_2/0_Rucina_0_416_0_2_2_2_2

New Line.l(r:p4udm259-p4udt101lv) Units=km Length=0.0165896 bus1=p4udt101lv.1.2 bus2=p4udm259.1.2 switch=n enabled=y phases=2 Linecode=1P_OH_AL_2/0_Rucina_0_416_0_2_2_2_2

New Line.l(r:p4udt110lv-p4ulv116) Units=km Length=0.016541 bus1=p4udt110lv.1.2 bus2=p4ulv116.1.2 switch=n enabled=y phases=2 Linecode=1P_OH_AL_2/0_Rucina_0_416_0_2_2_2_2

New Line.l(r:p4udm278-p4ulv117) Units=km Length=0.0174031 bus1=p4udm278.1.2 bus2=p4ulv117.1.2 switch=n enabled=y phases=2 Linecode=1P_OH_AL_2/0_Rucina_0_416_0_2_2_2_2

New Line.l(r:p4udm278-p4ulv11924) Units=km Length=0.0200843 bus1=p4udm278.1.2 bus2=p4ulv11924.1.2 switch=n enabled=y phases=2 Linecode=1P_OH_AL_2/0_Rucina_0_416_0_2_2_2_2

New Line.l(r:p4udm278-p4udt111lv) Units=km Length=0.0304544 bus1=p4udt111lv.1.2 bus2=p4udm278.1.2 switch=n enabled=y phases=2 Linecode=1P_OH_AL_4/0_Zuzara_0_416_0_2_2_2_2

New Line.l(r:p4udm279-p4ulv975) Units=km Length=0.0192956 bus1=p4udm279.1.2 bus2=p4ulv975.1.2 switch=n enabled=y phases=2 Linecode=1P_OH_AL_2/0_Rucina_0_416_0_2_2_2_2

New Line.l(r:p4udm279-p4udt111lv) Units=km Length=0.056127 bus1=p4udt111lv.1.2 bus2=p4udm279.1.2 switch=n enabled=y phases=2 Linecode=1P_OH_AL_4/0_Zuzara_0_416_0_2_2_2_2

New Line.l(r:p4udt112lv-p4ulv118) Units=km Length=0.0307118 bus1=p4udt112lv.1.2 bus2=p4ulv118.1.2 switch=n enabled=y phases=2 Linecode=1P_OH_AL_4/0_Zuzara_0_416_0_2_2_2_2

New Line.l(r:p4udt113lv-p4ulv119) Units=km Length=0.0187139 bus1=p4udt113lv.1.2 bus2=p4ulv119.1.2 switch=n enabled=y phases=2 Linecode=1P_OH_AL_2/0_Rucina_0_416_0_2_2_2_2

New Line.l(r:p4udm286-p4ulv121) Units=km Length=0.033822 bus1=p4udm286.1.2 bus2=p4ulv121.1.2 switch=n enabled=y phases=2 Linecode=1P_OH_AL_4/0_Zuzara_0_416_0_2_2_2_2

New Line.l(r:p4udm286-p4ulv10650) Units=km Length=0.0321561 bus1=p4udm286.1.2 bus2=p4ulv10650.1.2 switch=n enabled=y phases=2 Linecode=1P_OH_AL_4/0_Zuzara_0_416_0_2_2_2_2

New Line.l(r:p4udm286-p4udt115lv) Units=km Length=0.0189684 bus1=p4udt115lv.1.2 bus2=p4udm286.1.2 switch=n enabled=y phases=2 Linecode=1P_OH_AL_2/0_Rucina_0_416_0_2_2_2_2

New Line.l(r:p4udm289-p4ulv31563) Units=km Length=0.019006000000000002 bus1=p4udm289.1.2 bus2=p4ulv31563.1.2 switch=n enabled=y phases=2 Linecode=1P_OH_AL_2/0_Rucina_0_416_0_2_2_2_2

New Line.l(r:p4udm288-p4ulv24323) Units=km Length=0.0417092 bus1=p4udm288.1.2 bus2=p4ulv24323.1.2 switch=n enabled=y phases=2 Linecode=1P_OH_AL_4/0_Zuzara_0_416_0_2_2_2_2

New Line.l(r:p4udm288-p4udm289) Units=km Length=0.0189629 bus1=p4udm289.1.2 bus2=p4udm288.1.2 switch=n enabled=y phases=2 Linecode=1P_OH_AL_2/0_Rucina_0_416_0_2_2_2_2

New Line.l(r:p4udm289-p4udt115lv) Units=km Length=0.0189629 bus1=p4udt115lv.1.2 bus2=p4udm289.1.2 switch=n enabled=y phases=2 Linecode=1P_OH_AL_2/0_Rucina_0_416_0_2_2_2_2

New Line.l(r:p4udm1426-p4ulv533) Units=km Length=0.0367528 bus1=p4udm1426.1.2 bus2=p4ulv533.1.2 switch=n enabled=y phases=2 Linecode=1P_UG_AL_1/0_Brenau_0_416_0_2_2_2_2

New Line.l(r:p4udm1426-p4udt523lv) Units=km Length=0.0094861 bus1=p4udt523lv.1.2 bus2=p4udm1426.1.2 switch=n enabled=y phases=2 Linecode=1P_UG_AL_1/0_Brenau_0_416_0_2_2_2_2

New Line.l(r:p4udm1427-p4ulv18031) Units=km Length=0.0300637 bus1=p4udm1427.1.2 bus2=p4ulv18031.1.2 switch=n enabled=y phases=2 Linecode=1P_UG_AL_1/0_Brenau_0_416_0_2_2_2_2

New Line.l(r:p4udm1427-p4udt523lv) Units=km Length=0.0094861 bus1=p4udt523lv.1.2 bus2=p4udm1427.1.2 switch=n enabled=y phases=2 Linecode=1P_UG_AL_1/0_Brenau_0_416_0_2_2_2_2

New Line.l(r:p4udm1428-p4ulv534) Units=km Length=0.0498797 bus1=p4udm1428.1.2 bus2=p4ulv534.1.2 switch=n enabled=y phases=2 Linecode=1P_UG_AL_1/0_Brenau_0_416_0_2_2_2_2

New Line.l(r:p4udm1428-p4udt524lv) Units=km Length=0.00909824 bus1=p4udt524lv.1.2 bus2=p4udm1428.1.2 switch=n enabled=y phases=2 Linecode=1P_UG_AL_1/0_Brenau_0_416_0_2_2_2_2

New Line.l(r:p4udm1429-p4ulv4320) Units=km Length=0.0565747 bus1=p4udm1429.1.2 bus2=p4ulv4320.1.2 switch=n enabled=y phases=2 Linecode=1P_UG_AL_1/0_Brenau_0_416_0_2_2_2_2

New Line.l(r:p4udm1429-p4udt524lv) Units=km Length=0.008499060000000001 bus1=p4udt524lv.1.2 bus2=p4udm1429.1.2 switch=n enabled=y phases=2 Linecode=1P_UG_AL_1/0_Brenau_0_416_0_2_2_2_2

New Line.l(r:p4udt538lv-p4ulv548) Units=km Length=0.0263498 bus1=p4udt538lv.1.2 bus2=p4ulv548.1.2 switch=n enabled=y phases=2 Linecode=1P_OH_AL_2/0_Rucina_0_416_0_2_2_2_2

New Line.l(r:p4udt540lv-p4ulv550) Units=km Length=0.0181205 bus1=p4udt540lv.1.2 bus2=p4ulv550.1.2 switch=n enabled=y phases=2 Linecode=1P_OH_AL_2/0_Rucina_0_416_0_2_2_2_2

New Line.l(r:p4udm1470-p4ulv31153) Units=km Length=0.0326586 bus1=p4udm1470.1.2 bus2=p4ulv31153.1.2 switch=n enabled=y phases=2 Linecode=1P_OH_AL_4/0_Zuzara_0_416_0_2_2_2_2

New Line.l(r:p4udm1470-p4udt540lv) Units=km Length=0.0198787 bus1=p4udt540lv.1.2 bus2=p4udm1470.1.2 switch=n enabled=y phases=2 Linecode=1P_OH_AL_2/0_Rucina_0_416_0_2_2_2_2

New Line.l(r:p4udt541lv-p4ulv551) Units=km Length=0.0185037 bus1=p4udt541lv.1.2 bus2=p4ulv551.1.2 switch=n enabled=y phases=2 Linecode=1P_UG_AL_1/0_Brenau_0_416_0_2_2_2_2

New Line.l(r:p4udt933lv-p4ulv953) Units=km Length=0.019033400000000002 bus1=p4udt933lv.1.2 bus2=p4ulv953.1.2 switch=n enabled=y phases=2 Linecode=1P_UG_AL_1/0_Brenau_0_416_0_2_2_2_2

New Line.l(r:p4udm2528-p4ulv3902) Units=km Length=0.0372481 bus1=p4udm2528.1.2 bus2=p4ulv3902.1.2 switch=n enabled=y phases=2 Linecode=1P_UG_AL_1/0_Brenau_0_416_0_2_2_2_2

New Line.l(r:p4udm2528-p4udt933lv) Units=km Length=0.00996605 bus1=p4udt933lv.1.2 bus2=p4udm2528.1.2 switch=n enabled=y phases=2 Linecode=1P_UG_AL_1/0_Brenau_0_416_0_2_2_2_2

New Line.l(r:p4udt934lv-p4ulv954) Units=km Length=0.0214214 bus1=p4udt934lv.1.2 bus2=p4ulv954.1.2 switch=n enabled=y phases=2 Linecode=1P_UG_AL_1/0_Brenau_0_416_0_2_2_2_2

New Line.l(r:p4udm2554-p4ulv967) Units=km Length=0.01894 bus1=p4udm2554.1.2 bus2=p4ulv967.1.2 switch=n enabled=y phases=2 Linecode=1P_OH_AL_2/0_Rucina_0_416_0_2_2_2_2

New Line.l(r:p4udm2554-p4ulv23508) Units=km Length=0.0199198 bus1=p4udm2554.1.2 bus2=p4ulv23508.1.2 switch=n enabled=y phases=2 Linecode=1P_OH_AL_2/0_Rucina_0_416_0_2_2_2_2

New Line.l(r:p4udm2554-p4udt947lv) Units=km Length=0.0124158 bus1=p4udt947lv.1.2 bus2=p4udm2554.1.2 switch=n enabled=y phases=2 Linecode=1P_OH_AL_2/0_Rucina_0_416_0_2_2_2_2

New Line.l(r:p4udm2556-p4ulv42869) Units=km Length=0.0281602 bus1=p4udm2556.1.2 bus2=p4ulv42869.1.2 switch=n enabled=y phases=2 Linecode=1P_OH_AL_4/0_Zuzara_0_416_0_2_2_2_2

New Line.l(r:p4udm2556-p4udt947lv) Units=km Length=0.0556663 bus1=p4udt947lv.1.2 bus2=p4udm2556.1.2 switch=n enabled=y phases=2 Linecode=1P_OH_AL_4/0_Zuzara_0_416_0_2_2_2_2

New Line.l(r:p4udt948lv-p4ulv968) Units=km Length=0.0179544 bus1=p4udt948lv.1.2 bus2=p4ulv968.1.2 switch=n enabled=y phases=2 Linecode=1P_OH_AL_2/0_Rucina_0_416_0_2_2_2_2

New Line.l(r:p4udm2558-p4ulv6810) Units=km Length=0.0157487 bus1=p4udm2558.1.2 bus2=p4ulv6810.1.2 switch=n enabled=y phases=2 Linecode=1P_OH_AL_2/0_Rucina_0_416_0_2_2_2_2

New Line.l(r:p4udm2558-p4udt948lv) Units=km Length=0.0333268 bus1=p4udt948lv.1.2 bus2=p4udm2558.1.2 switch=n enabled=y phases=2 Linecode=1P_OH_AL_4/0_Zuzara_0_416_0_2_2_2_2

New Line.l(r:p4udm2559-p4ulv32395) Units=km Length=0.033781 bus1=p4udm2559.1.2 bus2=p4ulv32395.1.2 switch=n enabled=y phases=2 Linecode=1P_OH_AL_4/0_Zuzara_0_416_0_2_2_2_2

New Line.l(r:p4udm2559-p4udt948lv) Units=km Length=0.00807759 bus1=p4udt948lv.1.2 bus2=p4udm2559.1.2 switch=n enabled=y phases=2 Linecode=1P_OH_AL_2/0_Rucina_0_416_0_2_2_2_2

New Line.l(r:p4udt954lv-p4ulv974) Units=km Length=0.0198923 bus1=p4udt954lv.1.2 bus2=p4ulv974.1.2 switch=n enabled=y phases=2 Linecode=1P_OH_AL_2/0_Rucina_0_416_0_2_2_2_2

New Line.l(r:p4udt955lv-p4ulv976) Units=km Length=0.0479136 bus1=p4udt955lv.1.2 bus2=p4ulv976.1.2 switch=n enabled=y phases=2 Linecode=1P_UG_AL_1/0_Brenau_0_416_0_2_2_2_2

New Line.l(r:p4udt956lv-p4ulv977) Units=km Length=0.0209474 bus1=p4udt956lv.1.2 bus2=p4ulv977.1.2 switch=n enabled=y phases=2 Linecode=1P_OH_AL_2/0_Rucina_0_416_0_2_2_2_2

New Line.l(r:p4udm2576-p4ulv20156) Units=km Length=0.0358741 bus1=p4udm2576.1.2 bus2=p4ulv20156.1.2 switch=n enabled=y phases=2 Linecode=1P_OH_AL_4/0_Zuzara_0_416_0_2_2_2_2

New Line.l(r:p4udm2576-p4udt956lv) Units=km Length=0.0198787 bus1=p4udt956lv.1.2 bus2=p4udm2576.1.2 switch=n enabled=y phases=2 Linecode=1P_OH_AL_2/0_Rucina_0_416_0_2_2_2_2

New Line.l(r:p4udt958lv-p4ulv979) Units=km Length=0.0167448 bus1=p4udt958lv.1.2 bus2=p4ulv979.1.2 switch=n enabled=y phases=2 Linecode=1P_OH_AL_2/0_Rucina_0_416_0_2_2_2_2

New Line.l(r:p4udm2581-p4ulv980) Units=km Length=0.0357117 bus1=p4udm2581.1.2 bus2=p4ulv980.1.2 switch=n enabled=y phases=2 Linecode=1P_OH_AL_4/0_Zuzara_0_416_0_2_2_2_2

New Line.l(r:p4udm2581-p4udt959lv) Units=km Length=0.0187589 bus1=p4udt959lv.1.2 bus2=p4udm2581.1.2 switch=n enabled=y phases=2 Linecode=1P_OH_AL_2/0_Rucina_0_416_0_2_2_2_2

New Line.l(r:p4udm2582-p4ulv1399) Units=km Length=0.0246862 bus1=p4udm2582.1.2 bus2=p4ulv1399.1.2 switch=n enabled=y phases=2 Linecode=1P_OH_AL_2/0_Rucina_0_416_0_2_2_2_2

New Line.l(r:p4udm2582-p4udt959lv) Units=km Length=0.018762 bus1=p4udt959lv.1.2 bus2=p4udm2582.1.2 switch=n enabled=y phases=2 Linecode=1P_OH_AL_2/0_Rucina_0_416_0_2_2_2_2

New Line.l(r:p4udt960lv-p4ulv981) Units=km Length=0.0366089 bus1=p4udt960lv.1.2 bus2=p4ulv981.1.2 switch=n enabled=y phases=2 Linecode=1P_OH_AL_4/0_Zuzara_0_416_0_2_2_2_2

New Line.l(r:p4udt960lv-p4ulv26423) Units=km Length=0.0192307 bus1=p4udt960lv.1.2 bus2=p4ulv26423.1.2 switch=n enabled=y phases=2 Linecode=1P_OH_AL_2/0_Rucina_0_416_0_2_2_2_2

New Line.l(r:p4udt961lv-p4ulv982) Units=km Length=0.015527600000000003 bus1=p4udt961lv.1.2 bus2=p4ulv982.1.2 switch=n enabled=y phases=2 Linecode=1P_OH_AL_2/0_Rucina_0_416_0_2_2_2_2

New Line.l(r:p4udt961lv-p4ulv3473) Units=km Length=0.0201306 bus1=p4udt961lv.1.2 bus2=p4ulv3473.1.2 switch=n enabled=y phases=2 Linecode=1P_OH_AL_2/0_Rucina_0_416_0_2_2_2_2

New Line.l(r:p4udm2587-p4ulv31995) Units=km Length=0.0198604 bus1=p4udm2587.1.2 bus2=p4ulv31995.1.2 switch=n enabled=y phases=2 Linecode=1P_OH_AL_2/0_Rucina_0_416_0_2_2_2_2

New Line.l(r:p4udm2587-p4udt961lv) Units=km Length=0.0191427 bus1=p4udt961lv.1.2 bus2=p4udm2587.1.2 switch=n enabled=y phases=2 Linecode=1P_OH_AL_2/0_Rucina_0_416_0_2_2_2_2

New Line.l(r:p4udm2588-p4ulv39528) Units=km Length=0.0181067 bus1=p4udm2588.1.2 bus2=p4ulv39528.1.2 switch=n enabled=y phases=2 Linecode=1P_OH_AL_2/0_Rucina_0_416_0_2_2_2_2

New Line.l(r:p4udm2588-p4udt961lv) Units=km Length=0.027683200000000005 bus1=p4udt961lv.1.2 bus2=p4udm2588.1.2 switch=n enabled=y phases=2 Linecode=1P_OH_AL_4/0_Zuzara_0_416_0_2_2_2_2

New Line.l(r:p4udt1326lv-p4ulv1374) Units=km Length=0.018054000000000004 bus1=p4udt1326lv.1.2 bus2=p4ulv1374.1.2 switch=n enabled=y phases=2 Linecode=1P_UG_AL_1/0_Brenau_0_416_0_2_2_2_2

New Line.l(r:p4udt1327lv-p4ulv20580) Units=km Length=0.028495000000000003 bus1=p4udt1327lv.1.2 bus2=p4ulv20580.1.2 switch=n enabled=y phases=2 Linecode=1P_UG_AL_1/0_Brenau_0_416_0_2_2_2_2

New Line.l(r:p4udt1327lv-p4ulv42447) Units=km Length=0.0224636 bus1=p4udt1327lv.1.2 bus2=p4ulv42447.1.2 switch=n enabled=y phases=2 Linecode=1P_UG_AL_1/0_Brenau_0_416_0_2_2_2_2

New Line.l(r:p4udm3563-p4ulv1375) Units=km Length=0.042795200000000005 bus1=p4udm3563.1.2 bus2=p4ulv1375.1.2 switch=n enabled=y phases=2 Linecode=1P_UG_AL_1/0_Brenau_0_416_0_2_2_2_2

New Line.l(r:p4udm3563-p4udt1327lv) Units=km Length=0.00782706 bus1=p4udt1327lv.1.2 bus2=p4udm3563.1.2 switch=n enabled=y phases=2 Linecode=1P_UG_AL_1/0_Brenau_0_416_0_2_2_2_2

New Line.l(r:p4udm3565-p4ulv32781) Units=km Length=0.0298297 bus1=p4udm3565.1.2 bus2=p4ulv32781.1.2 switch=n enabled=y phases=2 Linecode=1P_UG_AL_1/0_Brenau_0_416_0_2_2_2_2

New Line.l(r:p4udm3565-p4udt1327lv) Units=km Length=0.029295 bus1=p4udt1327lv.1.2 bus2=p4udm3565.1.2 switch=n enabled=y phases=2 Linecode=1P_UG_AL_1/0_Brenau_0_416_0_2_2_2_2

New Line.l(r:p4udm3588-p4ulv1386) Units=km Length=0.0356674 bus1=p4udm3588.1.2 bus2=p4ulv1386.1.2 switch=n enabled=y phases=2 Linecode=1P_OH_AL_4/0_Zuzara_0_416_0_2_2_2_2

New Line.l(r:p4udm3589-p4ulv2622) Units=km Length=0.0184298 bus1=p4udm3589.1.2 bus2=p4ulv2622.1.2 switch=n enabled=y phases=2 Linecode=1P_OH_AL_2/0_Rucina_0_416_0_2_2_2_2

New Line.l(r:p4udm3588-p4udm3589) Units=km Length=0.0387831 bus1=p4udm3588.1.2 bus2=p4udm3589.1.2 switch=n enabled=y phases=2 Linecode=1P_OH_AL_4/0_Zuzara_0_416_0_2_2_2_2

New Line.l(r:p4udm3588-p4udt1337lv) Units=km Length=0.019399100000000002 bus1=p4udt1337lv.1.2 bus2=p4udm3588.1.2 switch=n enabled=y phases=2 Linecode=1P_OH_AL_2/0_Rucina_0_416_0_2_2_2_2

New Line.l(r:p4udm3590-p4ulv8926) Units=km Length=0.0404503 bus1=p4udm3590.1.2 bus2=p4ulv8926.1.2 switch=n enabled=y phases=2 Linecode=1P_OH_AL_4/0_Zuzara_0_416_0_2_2_2_2

New Line.l(r:p4udm3590-p4ulv11051) Units=km Length=0.0336212 bus1=p4udm3590.1.2 bus2=p4ulv11051.1.2 switch=n enabled=y phases=2 Linecode=1P_OH_AL_4/0_Zuzara_0_416_0_2_2_2_2

New Line.l(r:p4udm3590-p4udt1337lv) Units=km Length=0.019391500000000002 bus1=p4udt1337lv.1.2 bus2=p4udm3590.1.2 switch=n enabled=y phases=2 Linecode=1P_OH_AL_2/0_Rucina_0_416_0_2_2_2_2

New Line.l(r:p4udm3610-p4ulv1395) Units=km Length=0.0248661 bus1=p4udm3610.1.2 bus2=p4ulv1395.1.2 switch=n enabled=y phases=2 Linecode=1P_OH_AL_2/0_Rucina_0_416_0_2_2_2_2

New Line.l(r:p4udm3610-p4udt1346lv) Units=km Length=0.0182382 bus1=p4udt1346lv.1.2 bus2=p4udm3610.1.2 switch=n enabled=y phases=2 Linecode=1P_OH_AL_2/0_Rucina_0_416_0_2_2_2_2

New Line.l(r:p4udm3611-p4ulv29008) Units=km Length=0.023223900000000002 bus1=p4udm3611.1.2 bus2=p4ulv29008.1.2 switch=n enabled=y phases=2 Linecode=1P_OH_AL_2/0_Rucina_0_416_0_2_2_2_2

New Line.l(r:p4udm3611-p4udt1346lv) Units=km Length=0.0182419 bus1=p4udt1346lv.1.2 bus2=p4udm3611.1.2 switch=n enabled=y phases=2 Linecode=1P_OH_AL_2/0_Rucina_0_416_0_2_2_2_2

New Line.l(r:p4udt1347lv-p4ulv7228) Units=km Length=0.020536600000000002 bus1=p4udt1347lv.1.2 bus2=p4ulv7228.1.2 switch=n enabled=y phases=2 Linecode=1P_OH_AL_2/0_Rucina_0_416_0_2_2_2_2

New Line.l(r:p4udm3612-p4ulv1396) Units=km Length=0.0152073 bus1=p4udm3612.1.2 bus2=p4ulv1396.1.2 switch=n enabled=y phases=2 Linecode=1P_OH_AL_2/0_Rucina_0_416_0_2_2_2_2

New Line.l(r:p4udm3612-p4ulv10231) Units=km Length=0.0192251 bus1=p4udm3612.1.2 bus2=p4ulv10231.1.2 switch=n enabled=y phases=2 Linecode=1P_OH_AL_2/0_Rucina_0_416_0_2_2_2_2

New Line.l(r:p4udm3612-p4udt1347lv) Units=km Length=0.0197062 bus1=p4udt1347lv.1.2 bus2=p4udm3612.1.2 switch=n enabled=y phases=2 Linecode=1P_OH_AL_2/0_Rucina_0_416_0_2_2_2_2

New Line.l(r:p4udt1348lv-p4ulv1397) Units=km Length=0.0266563 bus1=p4udt1348lv.1.2 bus2=p4ulv1397.1.2 switch=n enabled=y phases=2 Linecode=1P_UG_AL_1/0_Brenau_0_416_0_2_2_2_2

New Line.l(r:p4udt1349lv-p4ulv1398) Units=km Length=0.0177946 bus1=p4udt1349lv.1.2 bus2=p4ulv1398.1.2 switch=n enabled=y phases=2 Linecode=1P_OH_AL_2/0_Rucina_0_416_0_2_2_2_2

New Line.l(r:p4udt1737lv-p4ulv1808) Units=km Length=0.019610300000000004 bus1=p4udt1737lv.1.2 bus2=p4ulv1808.1.2 switch=n enabled=y phases=2 Linecode=1P_UG_AL_1/0_Brenau_0_416_0_2_2_2_2

New Line.l(r:p4udt1738lv-p4ulv1809) Units=km Length=0.016809 bus1=p4udt1738lv.1.2 bus2=p4ulv1809.1.2 switch=n enabled=y phases=2 Linecode=1P_UG_AL_1/0_Brenau_0_416_0_2_2_2_2

New Line.l(r:p4udm4696-p4ulv5975) Units=km Length=0.0201879 bus1=p4udm4696.1.2 bus2=p4ulv5975.1.2 switch=n enabled=y phases=2 Linecode=1P_UG_AL_1/0_Brenau_0_416_0_2_2_2_2

New Line.l(r:p4udm4696-p4ulv20131) Units=km Length=0.0180744 bus1=p4udm4696.1.2 bus2=p4ulv20131.1.2 switch=n enabled=y phases=2 Linecode=1P_UG_AL_1/0_Brenau_0_416_0_2_2_2_2

New Line.l(r:p4udm4696-p4udt1738lv) Units=km Length=0.00937602 bus1=p4udt1738lv.1.2 bus2=p4udm4696.1.2 switch=n enabled=y phases=2 Linecode=1P_UG_AL_4/0_Sweetbriar_0_416_0_2_2_2_2

New Line.l(r:p4udm4698-p4ulv42445) Units=km Length=0.027853800000000005 bus1=p4udm4698.1.2 bus2=p4ulv42445.1.2 switch=n enabled=y phases=2 Linecode=1P_UG_AL_1/0_Brenau_0_416_0_2_2_2_2

New Line.l(r:p4udm4698-p4udt1738lv) Units=km Length=0.018746 bus1=p4udt1738lv.1.2 bus2=p4udm4698.1.2 switch=n enabled=y phases=2 Linecode=1P_UG_AL_1/0_Brenau_0_416_0_2_2_2_2

New Line.l(r:p4udt1739lv-p4ulv22703) Units=km Length=0.0175368 bus1=p4udt1739lv.1.2 bus2=p4ulv22703.1.2 switch=n enabled=y phases=2 Linecode=1P_UG_AL_1/0_Brenau_0_416_0_2_2_2_2

New Line.l(r:p4udm4699-p4ulv1810) Units=km Length=0.0191409 bus1=p4udm4699.1.2 bus2=p4ulv1810.1.2 switch=n enabled=y phases=2 Linecode=1P_UG_AL_1/0_Brenau_0_416_0_2_2_2_2

New Line.l(r:p4udm4699-p4udt1739lv) Units=km Length=0.0293747 bus1=p4udt1739lv.1.2 bus2=p4udm4699.1.2 switch=n enabled=y phases=2 Linecode=1P_UG_AL_1/0_Brenau_0_416_0_2_2_2_2

New Line.l(r:p4udm4700-p4ulv6798) Units=km Length=0.018498300000000002 bus1=p4udm4700.1.2 bus2=p4ulv6798.1.2 switch=n enabled=y phases=2 Linecode=1P_UG_AL_1/0_Brenau_0_416_0_2_2_2_2

New Line.l(r:p4udm4700-p4udt1739lv) Units=km Length=0.009796210000000001 bus1=p4udt1739lv.1.2 bus2=p4udm4700.1.2 switch=n enabled=y phases=2 Linecode=1P_UG_AL_1/0_Brenau_0_416_0_2_2_2_2

New Line.l(r:p4udt1748lv-p4ulv1819) Units=km Length=0.021625000000000002 bus1=p4udt1748lv.1.2 bus2=p4ulv1819.1.2 switch=n enabled=y phases=2 Linecode=1P_OH_AL_2/0_Rucina_0_416_0_2_2_2_2

New Line.l(r:p4udm4737-p4ulv1826) Units=km Length=0.0183576 bus1=p4udm4737.1.2 bus2=p4ulv1826.1.2 switch=n enabled=y phases=2 Linecode=1P_OH_AL_2/0_Rucina_0_416_0_2_2_2_2

New Line.l(r:p4udm4737-p4udt1755lv) Units=km Length=0.0180896 bus1=p4udt1755lv.1.2 bus2=p4udm4737.1.2 switch=n enabled=y phases=2 Linecode=1P_OH_AL_2/0_Rucina_0_416_0_2_2_2_2

New Line.l(r:p4udm4738-p4ulv3075) Units=km Length=0.0297735 bus1=p4udm4738.1.2 bus2=p4ulv3075.1.2 switch=n enabled=y phases=2 Linecode=1P_OH_AL_4/0_Zuzara_0_416_0_2_2_2_2

New Line.l(r:p4udm4738-p4udt1755lv) Units=km Length=0.0369561 bus1=p4udt1755lv.1.2 bus2=p4udm4738.1.2 switch=n enabled=y phases=2 Linecode=1P_OH_AL_4/0_Zuzara_0_416_0_2_2_2_2

New Line.l(r:p4udt1756lv-p4ulv1827) Units=km Length=0.0160814 bus1=p4udt1756lv.1.2 bus2=p4ulv1827.1.2 switch=n enabled=y phases=2 Linecode=1P_OH_AL_2/0_Rucina_0_416_0_2_2_2_2

New Line.l(r:p4udm5655-p4ulv2211) Units=km Length=0.0356883 bus1=p4udm5655.1.2 bus2=p4ulv2211.1.2 switch=n enabled=y phases=2 Linecode=1P_OH_AL_4/0_Zuzara_0_416_0_2_2_2_2

New Line.l(r:p4udm5655-p4udt2112lv) Units=km Length=0.0298039 bus1=p4udt2112lv.1.2 bus2=p4udm5655.1.2 switch=n enabled=y phases=2 Linecode=1P_OH_AL_4/0_Zuzara_0_416_0_2_2_2_2

New Line.l(r:p4udm5656-p4ulv41213) Units=km Length=0.0211597 bus1=p4udm5656.1.2 bus2=p4ulv41213.1.2 switch=n enabled=y phases=2 Linecode=1P_OH_AL_2/0_Rucina_0_416_0_2_2_2_2

New Line.l(r:p4udm5656-p4udt2112lv) Units=km Length=0.0453424 bus1=p4udt2112lv.1.2 bus2=p4udm5656.1.2 switch=n enabled=y phases=2 Linecode=1P_OH_AL_4/0_Zuzara_0_416_0_2_2_2_2

New Line.l(r:p4udm5657-p4ulv2212) Units=km Length=0.027015500000000005 bus1=p4udm5657.1.2 bus2=p4ulv2212.1.2 switch=n enabled=y phases=2 Linecode=1P_OH_AL_4/0_Zuzara_0_416_0_2_2_2_2

New Line.l(r:p4udm5657-p4udt2113lv) Units=km Length=0.0187562 bus1=p4udt2113lv.1.2 bus2=p4udm5657.1.2 switch=n enabled=y phases=2 Linecode=1P_OH_AL_2/0_Rucina_0_416_0_2_2_2_2

New Line.l(r:p4udm5658-p4ulv35761) Units=km Length=0.022888600000000002 bus1=p4udm5658.1.2 bus2=p4ulv35761.1.2 switch=n enabled=y phases=2 Linecode=1P_OH_AL_2/0_Rucina_0_416_0_2_2_2_2

New Line.l(r:p4udm5658-p4udt2113lv) Units=km Length=0.0133691 bus1=p4udt2113lv.1.2 bus2=p4udm5658.1.2 switch=n enabled=y phases=2 Linecode=1P_OH_AL_2/0_Rucina_0_416_0_2_2_2_2

New Line.l(r:p4udt2123lv-p4ulv15002) Units=km Length=0.0138354 bus1=p4udt2123lv.1.2 bus2=p4ulv15002.1.2 switch=n enabled=y phases=2 Linecode=1P_UG_AL_2/0_Converse_0_416_0_2_2_2_2

New Line.l(r:p4udm5679-p4ulv2223) Units=km Length=0.0230228 bus1=p4udm5679.1.2 bus2=p4ulv2223.1.2 switch=n enabled=y phases=2 Linecode=1P_UG_AL_1/0_Brenau_0_416_0_2_2_2_2

New Line.l(r:p4udm5679-p4udt2123lv) Units=km Length=0.009791230000000001 bus1=p4udt2123lv.1.2 bus2=p4udm5679.1.2 switch=n enabled=y phases=2 Linecode=1P_UG_AL_1/0_Brenau_0_416_0_2_2_2_2

New Line.l(r:p4udm5681-p4ulv39955) Units=km Length=0.0204805 bus1=p4udm5681.1.2 bus2=p4ulv39955.1.2 switch=n enabled=y phases=2 Linecode=1P_UG_AL_1/0_Brenau_0_416_0_2_2_2_2

New Line.l(r:p4udm5681-p4udt2123lv) Units=km Length=0.009791230000000001 bus1=p4udt2123lv.1.2 bus2=p4udm5681.1.2 switch=n enabled=y phases=2 Linecode=1P_UG_AL_1/0_Brenau_0_416_0_2_2_2_2

New Line.l(r:p4udt2124lv-p4ulv12384) Units=km Length=0.0284851 bus1=p4udt2124lv.1.2 bus2=p4ulv12384.1.2 switch=n enabled=y phases=2 Linecode=1P_OH_AL_4/0_Zuzara_0_416_0_2_2_2_2

New Line.l(r:p4udm5682-p4ulv2224) Units=km Length=0.0150027 bus1=p4udm5682.1.2 bus2=p4ulv2224.1.2 switch=n enabled=y phases=2 Linecode=1P_OH_AL_2/0_Rucina_0_416_0_2_2_2_2

New Line.l(r:p4udm5682-p4udt2124lv) Units=km Length=0.0191249 bus1=p4udt2124lv.1.2 bus2=p4udm5682.1.2 switch=n enabled=y phases=2 Linecode=1P_OH_AL_2/0_Rucina_0_416_0_2_2_2_2

New Line.l(r:p4udt2126lv-p4ulv2226) Units=km Length=0.0319993 bus1=p4udt2126lv.1.2 bus2=p4ulv2226.1.2 switch=n enabled=y phases=2 Linecode=1P_OH_AL_4/0_Zuzara_0_416_0_2_2_2_2

New Line.l(r:p4udt2472lv-p4ulv2607) Units=km Length=0.0168122 bus1=p4udt2472lv.1.2 bus2=p4ulv2607.1.2 switch=n enabled=y phases=2 Linecode=1P_UG_AL_1/0_Brenau_0_416_0_2_2_2_2

New Line.l(r:p4udt2472lv-p4ulv7651) Units=km Length=0.0168122 bus1=p4udt2472lv.1.2 bus2=p4ulv7651.1.2 switch=n enabled=y phases=2 Linecode=1P_UG_AL_1/0_Brenau_0_416_0_2_2_2_2

New Line.l(r:p4udt2485lv-p4ulv2620) Units=km Length=0.0219198 bus1=p4udt2485lv.1.2 bus2=p4ulv2620.1.2 switch=n enabled=y phases=2 Linecode=1P_OH_AL_2/0_Rucina_0_416_0_2_2_2_2

New Line.l(r:p4udt2486lv-p4ulv2621) Units=km Length=0.0226105 bus1=p4udt2486lv.1.2 bus2=p4ulv2621.1.2 switch=n enabled=y phases=2 Linecode=1P_OH_AL_2/0_Rucina_0_416_0_2_2_2_2

New Line.l(r:p4udt2863lv-p4ulv3051) Units=km Length=0.0264636 bus1=p4udt2863lv.1.2 bus2=p4ulv3051.1.2 switch=n enabled=y phases=2 Linecode=1P_UG_AL_1/0_Brenau_0_416_0_2_2_2_2

New Line.l(r:p4udt2864lv-p4ulv21015) Units=km Length=0.0219038 bus1=p4udt2864lv.1.2 bus2=p4ulv21015.1.2 switch=n enabled=y phases=2 Linecode=1P_UG_AL_1/0_Brenau_0_416_0_2_2_2_2

New Line.l(r:p4udm7611-p4ulv3052) Units=km Length=0.0156983 bus1=p4udm7611.1.2 bus2=p4ulv3052.1.2 switch=n enabled=y phases=2 Linecode=1P_UG_AL_1/0_Brenau_0_416_0_2_2_2_2

New Line.l(r:p4udm7611-p4ulv10209) Units=km Length=0.0428761 bus1=p4udm7611.1.2 bus2=p4ulv10209.1.2 switch=n enabled=y phases=2 Linecode=1P_UG_AL_1/0_Brenau_0_416_0_2_2_2_2

New Line.l(r:p4udm7611-p4udt2864lv) Units=km Length=0.00695201 bus1=p4udt2864lv.1.2 bus2=p4udm7611.1.2 switch=n enabled=y phases=2 Linecode=1P_UG_AL_4/0_Sweetbriar_0_416_0_2_2_2_2

New Line.l(r:p4udm7614-p4ulv38299) Units=km Length=0.0195244 bus1=p4udm7614.1.2 bus2=p4ulv38299.1.2 switch=n enabled=y phases=2 Linecode=1P_UG_AL_1/0_Brenau_0_416_0_2_2_2_2

New Line.l(r:p4udm7614-p4udt2864lv) Units=km Length=0.0251254 bus1=p4udt2864lv.1.2 bus2=p4udm7614.1.2 switch=n enabled=y phases=2 Linecode=1P_UG_AL_1/0_Brenau_0_416_0_2_2_2_2

New Line.l(r:p4udt2865lv-p4ulv3053) Units=km Length=0.0310684 bus1=p4udt2865lv.1.2 bus2=p4ulv3053.1.2 switch=n enabled=y phases=2 Linecode=1P_UG_AL_1/0_Brenau_0_416_0_2_2_2_2

New Line.l(r:p4udt2874lv-p4ulv3064) Units=km Length=0.0258556 bus1=p4udt2874lv.1.2 bus2=p4ulv3064.1.2 switch=n enabled=y phases=2 Linecode=1P_OH_AL_2/0_Rucina_0_416_0_2_2_2_2

New Line.l(r:p4udt2874lv-p4ulv34924) Units=km Length=0.0221282 bus1=p4udt2874lv.1.2 bus2=p4ulv34924.1.2 switch=n enabled=y phases=2 Linecode=1P_OH_AL_2/0_Rucina_0_416_0_2_2_2_2

New Line.l(r:p4udt2881lv-p4ulv3072) Units=km Length=0.0815944 bus1=p4udt2881lv.1.2 bus2=p4ulv3072.1.2 switch=n enabled=y phases=2 Linecode=1P_OH_AL_4/0_Zuzara_0_416_0_2_2_2_2

New Line.l(r:p4udt2882lv-p4ulv3073) Units=km Length=0.0189374 bus1=p4udt2882lv.1.2 bus2=p4ulv3073.1.2 switch=n enabled=y phases=2 Linecode=1P_OH_AL_2/0_Rucina_0_416_0_2_2_2_2

New Line.l(r:p4udt2883lv-p4ulv3074) Units=km Length=0.0231325 bus1=p4udt2883lv.1.2 bus2=p4ulv3074.1.2 switch=n enabled=y phases=2 Linecode=1P_OH_AL_2/0_Rucina_0_416_0_2_2_2_2

New Line.l(r:p4udm7652-p4ulv19286) Units=km Length=0.0225378 bus1=p4udm7652.1.2 bus2=p4ulv19286.1.2 switch=n enabled=y phases=2 Linecode=1P_OH_AL_2/0_Rucina_0_416_0_2_2_2_2

New Line.l(r:p4udm7652-p4udt2883lv) Units=km Length=0.0251395 bus1=p4udt2883lv.1.2 bus2=p4udm7652.1.2 switch=n enabled=y phases=2 Linecode=1P_OH_AL_2/0_Rucina_0_416_0_2_2_2_2

New Line.l(r:p4udt2884lv-p4ulv42027) Units=km Length=0.0331504 bus1=p4udt2884lv.1.2 bus2=p4ulv42027.1.2 switch=n enabled=y phases=2 Linecode=1P_OH_AL_4/0_Zuzara_0_416_0_2_2_2_2

New Line.l(r:p4udm7653-p4ulv3076) Units=km Length=0.0360728 bus1=p4udm7653.1.2 bus2=p4ulv3076.1.2 switch=n enabled=y phases=2 Linecode=1P_OH_AL_4/0_Zuzara_0_416_0_2_2_2_2

New Line.l(r:p4udm7653-p4udt2884lv) Units=km Length=0.0189684 bus1=p4udt2884lv.1.2 bus2=p4udm7653.1.2 switch=n enabled=y phases=2 Linecode=1P_OH_AL_2/0_Rucina_0_416_0_2_2_2_2

New Line.l(r:p4udt2888lv-p4ulv3080) Units=km Length=0.0168863 bus1=p4udt2888lv.1.2 bus2=p4ulv3080.1.2 switch=n enabled=y phases=2 Linecode=1P_OH_AL_2/0_Rucina_0_416_0_2_2_2_2

New Line.l(r:p4udt3228lv-p4ulv3448) Units=km Length=0.0214153 bus1=p4udt3228lv.1.2 bus2=p4ulv3448.1.2 switch=n enabled=y phases=2 Linecode=1P_UG_AL_1/0_Brenau_0_416_0_2_2_2_2

New Line.l(r:p4udm8574-p4ulv3457) Units=km Length=0.017417 bus1=p4udm8574.1.2 bus2=p4ulv3457.1.2 switch=n enabled=y phases=2 Linecode=1P_OH_AL_2/0_Rucina_0_416_0_2_2_2_2

New Line.l(r:p4udm8574-p4udt3237lv) Units=km Length=0.04195220000000001 bus1=p4udt3237lv.1.2 bus2=p4udm8574.1.2 switch=n enabled=y phases=2 Linecode=1P_OH_AL_4/0_Zuzara_0_416_0_2_2_2_2

New Line.l(r:p4udm8575-p4ulv20141) Units=km Length=0.0216158 bus1=p4udm8575.1.2 bus2=p4ulv20141.1.2 switch=n enabled=y phases=2 Linecode=1P_OH_AL_2/0_Rucina_0_416_0_2_2_2_2

New Line.l(r:p4udm8575-p4ulv27734) Units=km Length=0.0156082 bus1=p4udm8575.1.2 bus2=p4ulv27734.1.2 switch=n enabled=y phases=2 Linecode=1P_OH_AL_2/0_Rucina_0_416_0_2_2_2_2

New Line.l(r:p4udm8575-p4udt3237lv) Units=km Length=0.0120144 bus1=p4udt3237lv.1.2 bus2=p4udm8575.1.2 switch=n enabled=y phases=2 Linecode=1P_OH_AL_2/0_Rucina_0_416_0_2_2_2_2

New Line.l(r:p4udt3238lv-p4ulv3458) Units=km Length=0.0181887 bus1=p4udt3238lv.1.2 bus2=p4ulv3458.1.2 switch=n enabled=y phases=2 Linecode=1P_OH_AL_2/0_Rucina_0_416_0_2_2_2_2

New Line.l(r:p4udt3239lv-p4ulv22303) Units=km Length=0.0139855 bus1=p4udt3239lv.1.2 bus2=p4ulv22303.1.2 switch=n enabled=y phases=2 Linecode=1P_OH_AL_2/0_Rucina_0_416_0_2_2_2_2

New Line.l(r:p4udm8578-p4ulv3459) Units=km Length=0.0204762 bus1=p4udm8578.1.2 bus2=p4ulv3459.1.2 switch=n enabled=y phases=2 Linecode=1P_OH_AL_2/0_Rucina_0_416_0_2_2_2_2

New Line.l(r:p4udm8578-p4udt3239lv) Units=km Length=0.019745700000000005 bus1=p4udt3239lv.1.2 bus2=p4udm8578.1.2 switch=n enabled=y phases=2 Linecode=1P_OH_AL_2/0_Rucina_0_416_0_2_2_2_2

New Line.l(r:p4udt3240lv-p4ulv36598) Units=km Length=0.0459598 bus1=p4udt3240lv.1.2 bus2=p4ulv36598.1.2 switch=n enabled=y phases=2 Linecode=1P_UG_AL_1/0_Brenau_0_416_0_2_2_2_2

New Line.l(r:p4udm8580-p4ulv3460) Units=km Length=0.06685890000000001 bus1=p4udm8580.1.2 bus2=p4ulv3460.1.2 switch=n enabled=y phases=2 Linecode=1P_UG_AL_1/0_Brenau_0_416_0_2_2_2_2

New Line.l(r:p4udm8580-p4udt3240lv) Units=km Length=0.00909824 bus1=p4udt3240lv.1.2 bus2=p4udm8580.1.2 switch=n enabled=y phases=2 Linecode=1P_UG_AL_1/0_Brenau_0_416_0_2_2_2_2

New Line.l(r:p4udm8581-p4ulv4705) Units=km Length=0.0617068 bus1=p4udm8581.1.2 bus2=p4ulv4705.1.2 switch=n enabled=y phases=2 Linecode=1P_UG_AL_1/0_Brenau_0_416_0_2_2_2_2

New Line.l(r:p4udm8581-p4udt3240lv) Units=km Length=0.0182063 bus1=p4udt3240lv.1.2 bus2=p4udm8581.1.2 switch=n enabled=y phases=2 Linecode=1P_UG_AL_1/0_Brenau_0_416_0_2_2_2_2

New Line.l(r:p4udt3241lv-p4ulv3461) Units=km Length=0.001 bus1=p4udt3241lv.1.2 bus2=p4ulv3461.1.2 switch=n enabled=y phases=2 Linecode=1P_OH_AL_4_Periwinkle_0_416_0_2_2_2_2

New Line.l(r:p4udm8600-p4ulv3471) Units=km Length=0.0227056 bus1=p4udm8600.1.2 bus2=p4ulv3471.1.2 switch=n enabled=y phases=2 Linecode=1P_OH_AL_2/0_Rucina_0_416_0_2_2_2_2

New Line.l(r:p4udm8600-p4udt3251lv) Units=km Length=0.0148244 bus1=p4udt3251lv.1.2 bus2=p4udm8600.1.2 switch=n enabled=y phases=2 Linecode=1P_OH_AL_2/0_Rucina_0_416_0_2_2_2_2

New Line.l(r:p4udm8601-p4ulv10646) Units=km Length=0.0194219 bus1=p4udm8601.1.2 bus2=p4ulv10646.1.2 switch=n enabled=y phases=2 Linecode=1P_OH_AL_2/0_Rucina_0_416_0_2_2_2_2

New Line.l(r:p4udm8601-p4udt3251lv) Units=km Length=0.0197283 bus1=p4udt3251lv.1.2 bus2=p4udm8601.1.2 switch=n enabled=y phases=2 Linecode=1P_OH_AL_2/0_Rucina_0_416_0_2_2_2_2

New Line.l(r:p4udm8602-p4ulv3472) Units=km Length=0.0141014 bus1=p4udm8602.1.2 bus2=p4ulv3472.1.2 switch=n enabled=y phases=2 Linecode=1P_UG_AL_1/0_Brenau_0_416_0_2_2_2_2

New Line.l(r:p4udm8602-p4udt3252lv) Units=km Length=0.009551970000000002 bus1=p4udt3252lv.1.2 bus2=p4udm8602.1.2 switch=n enabled=y phases=2 Linecode=1P_UG_AL_1/0_Brenau_0_416_0_2_2_2_2

New Line.l(r:p4udm8603-p4ulv5138) Units=km Length=0.027204900000000004 bus1=p4udm8603.1.2 bus2=p4ulv5138.1.2 switch=n enabled=y phases=2 Linecode=1P_UG_AL_1/0_Brenau_0_416_0_2_2_2_2

New Line.l(r:p4udm8603-p4udt3252lv) Units=km Length=0.00956067 bus1=p4udt3252lv.1.2 bus2=p4udm8603.1.2 switch=n enabled=y phases=2 Linecode=1P_UG_AL_1/0_Brenau_0_416_0_2_2_2_2
