New Line.sb7_p2uhs0_1247_256 Units=km Length=0.003023488 bus1=sb7_p2uhs0_1247_bus_7_10.1.2.3 bus2=p2udt8078-p2uhs0_1247x.1.2.3 switch=n enabled=y phases=3 Linecode=3P_OH_Code7_3_3_3

New Line.sb7_p2uhs0_1247_258 Units=km Length=0.0032124560000000003 bus1=sb7_p2uhs0_1247_bus_7_11.1.2.3 bus2=p2udt8122-p2uhs0_1247x.1.2.3 switch=n enabled=y phases=3 Linecode=3P_OH_Code7_3_3_3

New Line.sb7_p2uhs0_1247_260 Units=km Length=0.003023488 bus1=sb7_p2uhs0_1247_bus_7_12.1.2.3 bus2=p2udt4999-p2uhs0_1247x.1.2.3 switch=n enabled=y phases=3 Linecode=3P_OH_Code7_3_3_3

New Line.sb7_p2uhs0_1247_253 Units=km Length=0.002456584 bus1=sb7_p2uhs0_1247_bus_7_5.1.2.3 bus2=sb7_p2uhs0_1247_node_7_1.1.2.3 switch=n enabled=y phases=3 Linecode=3P_OH_Code7_3_3_3

New Line.sb7_p2uhs0_1247_255 Units=km Length=0.003023488 bus1=sb7_p2uhs0_1247_bus_7_9.1.2.3 bus2=p2udt1587-p2uhs0_1247x.1.2.3 switch=n enabled=y phases=3 Linecode=3P_OH_Code7_3_3_3

New Line.sb7_p2uhs0_1247_257 Units=km Length=0.002456584 bus1=sb7_p2uhs0_1247_bus_7_7.1.2.3 bus2=p2udt2514-p2uhs0_1247x.1.2.3 switch=n enabled=y phases=3 Linecode=3P_OH_Code7_3_3_3

New Line.sb7_p2uhs0_1247_259 Units=km Length=0.002456584 bus1=sb7_p2uhs0_1247_bus_7_8.1.2.3 bus2=p2udt8625-p2uhs0_1247x.1.2.3 switch=n enabled=y phases=3 Linecode=3P_OH_Code7_3_3_3

New Line.sb7_p2uhs0_1247_254 Units=km Length=0.002456584 bus1=sb7_p2uhs0_1247_bus_7_6.1.2.3 bus2=p2udt8249-p2uhs0_1247x.1.2.3 switch=n enabled=y phases=3 Linecode=3P_OH_Code7_3_3_3

New Line.sb7_p2uhs0_1247_392 Units=km Length=0.001 bus1=sb7_p2uhs0_1247_node_7_21.1.2.3 bus2=sb7_p2uhs0_1247_bus_7_3.1.2.3 switch=y enabled=y phases=3 Linecode=DISCONNECT_SWITCH_13KV_3_3_3_3

New Line.sb7_p2uhs0_1247_228 Units=km Length=0.001 bus1=sb7_p2uhs0_1247_node_7_18.1.2.3 bus2=sb7_p2uhs0_1247_bus_7_5.1.2.3 switch=y enabled=y phases=3 Linecode=DISCONNECT_SWITCH_13KV_3_3_3_3

New Line.sb7_p2uhs0_1247_225 Units=km Length=0.001 bus1=sb7_p2uhs0_1247_bus_7_3.1.2.3 bus2=sb7_p2uhs0_1247_bus_7_10.1.2.3 switch=y enabled=n phases=3 Linecode=DISCONNECT_SWITCH_13KV_3_3_3_3

New Line.sb7_p2uhs0_1247_242 Units=km Length=0.001 bus1=sb7_p2uhs0_1247_node_7_15.1.2.3 bus2=sb7_p2uhs0_1247_bus_7_3.1.2.3 switch=y enabled=y phases=3 Linecode=DISCONNECT_SWITCH_13KV_3_3_3_3

New Line.sb7_p2uhs0_1247_389 Units=km Length=0.001 bus1=sb7_p2uhs0_1247_node_7_16.1.2.3 bus2=sb7_p2uhs0_1247_node_7_17.1.2.3 switch=y enabled=y phases=3 Linecode=BREAKER_13KV_3_3_3_3

New Line.sb7_p2uhs0_1247_237 Units=km Length=0.001 bus1=sb7_p2uhs0_1247_node_7_30.1.2.3 bus2=sb7_p2uhs0_1247_bus_7_11.1.2.3 switch=y enabled=y phases=3 Linecode=DISCONNECT_SWITCH_13KV_3_3_3_3

New Line.sb7_p2uhs0_1247_394 Units=km Length=0.001 bus1=sb7_p2uhs0_1247_node_7_29.1.2.3 bus2=sb7_p2uhs0_1247_bus_7_3.1.2.3 switch=y enabled=y phases=3 Linecode=DISCONNECT_SWITCH_13KV_3_3_3_3

New Line.sb7_p2uhs0_1247_227 Units=km Length=0.001 bus1=sb7_p2uhs0_1247_node_7_19.1.2.3 bus2=sb7_p2uhs0_1247_node_7_18.1.2.3 switch=n enabled=y phases=3 Linecode=RECLOSER_13KV_3_3_3_3

New Line.sb7_p2uhs0_1247_240 Units=km Length=0.001 bus1=sb7_p2uhs0_1247_node_7_33.1.2.3 bus2=sb7_p2uhs0_1247_node_7_32.1.2.3 switch=n enabled=y phases=3 Linecode=RECLOSER_13KV_3_3_3_3

New Line.sb7_p2uhs0_1247_387 Units=km Length=0.001 bus1=sb7_p2uhs0_1247_node_7_12.1.2.3 bus2=sb7_p2uhs0_1247_bus_7_2.1.2.3 switch=y enabled=y phases=3 Linecode=DISCONNECT_SWITCH_69KV_3_3_3_3

New Line.sb7_p2uhs0_1247_396 Units=km Length=0.001 bus1=sb7_p2uhs0_1247_node_7_24.1.2.3 bus2=sb7_p2uhs0_1247_bus_7_4.1.2.3 switch=y enabled=y phases=3 Linecode=DISCONNECT_SWITCH_13KV_3_3_3_3

New Line.sb7_p2uhs0_1247_221 Units=km Length=0.001 bus1=sb7_p2uhs0_1247_bus_7_3.1.2.3 bus2=sb7_p2uhs0_1247_bus_7_9.1.2.3 switch=y enabled=n phases=3 Linecode=DISCONNECT_SWITCH_13KV_3_3_3_3

New Line.sb7_p2uhs0_1247_246 Units=km Length=0.001 bus1=sb7_p2uhs0_1247_node_7_23.1.2.3 bus2=sb7_p2uhs0_1247_node_7_22.1.2.3 switch=n enabled=y phases=3 Linecode=RECLOSER_13KV_3_3_3_3

New Line.sb7_p2uhs0_1247_385 Units=km Length=0.001 bus1=sb7_p2uhs0_1247_node_7_14.1.2.3 bus2=sb7_p2uhs0_1247_node_7_15.1.2.3 switch=y enabled=y phases=3 Linecode=BREAKER_13KV_3_3_3_3

New Line.sb7_p2uhs0_1247_398 Units=km Length=0.001 bus1=sb7_p2uhs0_1247_node_7_33.1.2.3 bus2=sb7_p2uhs0_1247_bus_7_4.1.2.3 switch=y enabled=y phases=3 Linecode=DISCONNECT_SWITCH_13KV_3_3_3_3

New Line.sb7_p2uhs0_1247_223 Units=km Length=0.001 bus1=sb7_p2uhs0_1247_node_7_29.1.2.3 bus2=sb7_p2uhs0_1247_node_7_28.1.2.3 switch=n enabled=y phases=3 Linecode=RECLOSER_13KV_3_3_3_3

New Line.sb7_p2uhs0_1247_244 Units=km Length=0.001 bus1=sb7_p2uhs0_1247_bus_7_4.1.2.3 bus2=sb7_p2uhs0_1247_bus_7_7.1.2.3 switch=y enabled=n phases=3 Linecode=DISCONNECT_SWITCH_13KV_3_3_3_3

New Line.sb7_p2uhs0_1247_383 Units=km Length=0.001 bus1=sb7_p2uhs0_1247_node_7_10.1.2.3 bus2=sb7_p2uhs0_1247_bus_7_1.1.2.3 switch=y enabled=y phases=3 Linecode=DISCONNECT_SWITCH_69KV_3_3_3_3

New Line.sb7_p2uhs0_1247_381 Units=km Length=0.001 bus1=sb7_p2uhs0_1247_bus_7_1.1.2.3 bus2=p2uhs0_69.1.2.3 switch=y enabled=y phases=3 Linecode=DISCONNECT_SWITCH_69KV_3_3_3_3

New Line.sb7_p2uhs0_1247_232 Units=km Length=0.001 bus1=sb7_p2uhs0_1247_node_7_20.1.2.3 bus2=sb7_p2uhs0_1247_bus_7_6.1.2.3 switch=y enabled=y phases=3 Linecode=DISCONNECT_SWITCH_13KV_3_3_3_3

New Line.sb7_p2uhs0_1247_251 Units=km Length=0.001 bus1=sb7_p2uhs0_1247_node_7_25.1.2.3 bus2=sb7_p2uhs0_1247_bus_7_8.1.2.3 switch=y enabled=y phases=3 Linecode=DISCONNECT_SWITCH_13KV_3_3_3_3

New Line.sb7_p2uhs0_1247_248 Units=km Length=0.001 bus1=sb7_p2uhs0_1247_bus_7_4.1.2.3 bus2=sb7_p2uhs0_1247_bus_7_8.1.2.3 switch=y enabled=n phases=3 Linecode=DISCONNECT_SWITCH_13KV_3_3_3_3

New Line.sb7_p2uhs0_1247_393 Units=km Length=0.001 bus1=sb7_p2uhs0_1247_node_7_26.1.2.3 bus2=sb7_p2uhs0_1247_bus_7_3.1.2.3 switch=y enabled=y phases=3 Linecode=DISCONNECT_SWITCH_13KV_3_3_3_3

New Line.sb7_p2uhs0_1247_229 Units=km Length=0.001 bus1=sb7_p2uhs0_1247_bus_7_3.1.2.3 bus2=sb7_p2uhs0_1247_bus_7_5.1.2.3 switch=y enabled=n phases=3 Linecode=DISCONNECT_SWITCH_13KV_3_3_3_3

New Line.sb7_p2uhs0_1247_243 Units=km Length=0.001 bus1=sb7_p2uhs0_1247_node_7_17.1.2.3 bus2=sb7_p2uhs0_1247_bus_7_4.1.2.3 switch=y enabled=y phases=3 Linecode=DISCONNECT_SWITCH_13KV_3_3_3_3

New Line.sb7_p2uhs0_1247_236 Units=km Length=0.001 bus1=sb7_p2uhs0_1247_node_7_31.1.2.3 bus2=sb7_p2uhs0_1247_node_7_30.1.2.3 switch=n enabled=y phases=3 Linecode=RECLOSER_13KV_3_3_3_3

New Line.sb7_p2uhs0_1247_395 Units=km Length=0.001 bus1=sb7_p2uhs0_1247_node_7_23.1.2.3 bus2=sb7_p2uhs0_1247_bus_7_4.1.2.3 switch=y enabled=y phases=3 Linecode=DISCONNECT_SWITCH_13KV_3_3_3_3

New Line.sb7_p2uhs0_1247_224 Units=km Length=0.001 bus1=sb7_p2uhs0_1247_node_7_28.1.2.3 bus2=sb7_p2uhs0_1247_bus_7_10.1.2.3 switch=y enabled=y phases=3 Linecode=DISCONNECT_SWITCH_13KV_3_3_3_3

New Line.sb7_p2uhs0_1247_241 Units=km Length=0.001 bus1=sb7_p2uhs0_1247_node_7_32.1.2.3 bus2=sb7_p2uhs0_1247_bus_7_12.1.2.3 switch=y enabled=y phases=3 Linecode=DISCONNECT_SWITCH_13KV_3_3_3_3

New Line.sb7_p2uhs0_1247_386 Units=km Length=0.001 bus1=sb7_p2uhs0_1247_node_7_13.1.2.3 bus2=sb7_p2uhs0_1247_node_7_12.1.2.3 switch=y enabled=y phases=3 Linecode=BREAKER_69KV_3_3_3_3

New Line.sb7_p2uhs0_1247_234 Units=km Length=0.001 bus1=sb7_p2uhs0_1247_bus_7_4.1.2.3 bus2=sb7_p2uhs0_1247_bus_7_11.1.2.3 switch=y enabled=n phases=3 Linecode=DISCONNECT_SWITCH_13KV_3_3_3_3

New Line.sb7_p2uhs0_1247_397 Units=km Length=0.001 bus1=sb7_p2uhs0_1247_node_7_31.1.2.3 bus2=sb7_p2uhs0_1247_bus_7_4.1.2.3 switch=y enabled=y phases=3 Linecode=DISCONNECT_SWITCH_13KV_3_3_3_3

New Line.sb7_p2uhs0_1247_247 Units=km Length=0.001 bus1=sb7_p2uhs0_1247_node_7_22.1.2.3 bus2=sb7_p2uhs0_1247_bus_7_7.1.2.3 switch=y enabled=y phases=3 Linecode=DISCONNECT_SWITCH_13KV_3_3_3_3

New Line.sb7_p2uhs0_1247_204 Units=km Length=0.001 bus1=sb7_p2uhs0_1247_bus_7_1.1.2.3 bus2=sb7_p2uhs0_1247_bus_7_2.1.2.3 switch=y enabled=y phases=3 Linecode=DISCONNECT_SWITCH_69KV_3_3_3_3

New Line.sb7_p2uhs0_1247_220 Units=km Length=0.001 bus1=sb7_p2uhs0_1247_node_7_27.1.2.3 bus2=sb7_p2uhs0_1247_bus_7_9.1.2.3 switch=y enabled=y phases=3 Linecode=DISCONNECT_SWITCH_13KV_3_3_3_3

New Line.sb7_p2uhs0_1247_382 Units=km Length=0.001 bus1=sb7_p2uhs0_1247_node_7_11.1.2.3 bus2=sb7_p2uhs0_1247_node_7_10.1.2.3 switch=y enabled=y phases=3 Linecode=BREAKER_69KV_3_3_3_3

New Line.sb7_p2uhs0_1247_238 Units=km Length=0.001 bus1=sb7_p2uhs0_1247_bus_7_4.1.2.3 bus2=sb7_p2uhs0_1247_bus_7_12.1.2.3 switch=y enabled=n phases=3 Linecode=DISCONNECT_SWITCH_13KV_3_3_3_3

New Line.sb7_p2uhs0_1247_219 Units=km Length=0.001 bus1=sb7_p2uhs0_1247_node_7_26.1.2.3 bus2=sb7_p2uhs0_1247_node_7_27.1.2.3 switch=n enabled=y phases=3 Linecode=RECLOSER_13KV_3_3_3_3

New Line.sb7_p2uhs0_1247_250 Units=km Length=0.001 bus1=sb7_p2uhs0_1247_node_7_24.1.2.3 bus2=sb7_p2uhs0_1247_node_7_25.1.2.3 switch=n enabled=y phases=3 Linecode=RECLOSER_13KV_3_3_3_3

New Line.sb7_p2uhs0_1247_233 Units=km Length=0.001 bus1=sb7_p2uhs0_1247_bus_7_3.1.2.3 bus2=sb7_p2uhs0_1247_bus_7_6.1.2.3 switch=y enabled=n phases=3 Linecode=DISCONNECT_SWITCH_13KV_3_3_3_3

New Line.sb7_p2uhs0_1247_252 Units=km Length=0.001 bus1=sb7_p2uhs0_1247_bus_7_3.1.2.3 bus2=sb7_p2uhs0_1247_bus_7_4.1.2.3 switch=y enabled=n phases=3 Linecode=DISCONNECT_SWITCH_13KV_3_3_3_3

New Line.sb7_p2uhs0_1247_390 Units=km Length=0.001 bus1=sb7_p2uhs0_1247_node_7_19.1.2.3 bus2=sb7_p2uhs0_1247_bus_7_3.1.2.3 switch=y enabled=y phases=3 Linecode=DISCONNECT_SWITCH_13KV_3_3_3_3

New Line.sb7_p2uhs0_1247_231 Units=km Length=0.001 bus1=sb7_p2uhs0_1247_node_7_21.1.2.3 bus2=sb7_p2uhs0_1247_node_7_20.1.2.3 switch=n enabled=y phases=3 Linecode=RECLOSER_13KV_3_3_3_3

