New Transformer.sb7_p2uhs0_1247_trans_213 phases=3 windings=2 wdg=1 conn=delta Kv=69.0 kva=22400.0 %R=0.370153834758116 bus=sb7_p2uhs0_1247_node_7_13 wdg=2 conn=wye Kv=12.47 kva=22400.0 %R=0.370153834758116 bus=sb7_p2uhs0_1247_node_7_16 XHL=7.40307669516232

New Transformer.sb7_p2uhs0_1247_trans_212 phases=3 windings=2 wdg=1 conn=delta Kv=69.0 kva=22400.0 %R=0.370153834758116 bus=sb7_p2uhs0_1247_node_7_11 wdg=2 conn=wye Kv=12.47 kva=22400.0 %R=0.370153834758116 bus=sb7_p2uhs0_1247_node_7_14 XHL=7.40307669516232

