New Load.load_p5ulv19397 conn=wye bus1=p5ulv19397.1.2 kV=0.2080002494301389 Vminpu=0.8 Vmaxpu=1.2 model=1 kW=6.67007 kvar=1.3509214659087996 Phases=2

New Load.load_p5ulv19398 conn=wye bus1=p5ulv19398.1.2 kV=0.2080002494301389 Vminpu=0.8 Vmaxpu=1.2 model=1 kW=9.9501 kvar=2.0204539791744063 Phases=2

New Load.load_p5ulv19401 conn=wye bus1=p5ulv19401.1.2 kV=0.2080002494301389 Vminpu=0.8 Vmaxpu=1.2 model=1 kW=6.96007 kvar=1.409656565407538 Phases=2

New Load.load_p5ulv19406 conn=wye bus1=p5ulv19406.1.2 kV=0.2080002494301389 Vminpu=0.8 Vmaxpu=1.2 model=1 kW=8.59009 kvar=1.7487817520184485 Phases=2

New Load.load_p5ulv19968 conn=wye bus1=p5ulv19968.1.2 kV=0.2080002494301389 Vminpu=0.8 Vmaxpu=1.2 model=1 kW=6.61007 kvar=1.3387693763573363 Phases=2

New Load.load_p5ulv19969 conn=wye bus1=p5ulv19969.1.2 kV=0.2080002494301389 Vminpu=0.8 Vmaxpu=1.2 model=1 kW=6.72007 kvar=1.3610482072016854 Phases=2

New Load.load_p5ulv19970 conn=wye bus1=p5ulv19970.1.2 kV=0.2080002494301389 Vminpu=0.8 Vmaxpu=1.2 model=1 kW=7.77008 kvar=1.5818430442199682 Phases=2

New Load.load_p5ulv19971 conn=wye bus1=p5ulv19971.1.2 kV=0.2080002494301389 Vminpu=0.8 Vmaxpu=1.2 model=1 kW=8.85009 kvar=1.8017128919162608 Phases=2

New Load.load_p5ulv19974 conn=wye bus1=p5ulv19974.1.2 kV=0.2080002494301389 Vminpu=0.8 Vmaxpu=1.2 model=1 kW=6.93007 kvar=1.4108327102755023 Phases=2

New Load.load_p5ulv19980 conn=wye bus1=p5ulv19980.1.2 kV=0.2080002494301389 Vminpu=0.8 Vmaxpu=1.2 model=1 kW=8.12008 kvar=1.6488525690409657 Phases=2

New Load.load_p5ulv19981 conn=wye bus1=p5ulv19981.1.2 kV=0.2080002494301389 Vminpu=0.8 Vmaxpu=1.2 model=1 kW=5.560060000000001 kvar=1.129018336644702 Phases=2

New Load.load_p5ulv20503 conn=wye bus1=p5ulv20503.1.2 kV=0.2080002494301389 Vminpu=0.8 Vmaxpu=1.2 model=1 kW=8.33008 kvar=1.6914948877741063 Phases=2

New Load.load_p5ulv20505 conn=wye bus1=p5ulv20505.1.2 kV=0.2080002494301389 Vminpu=0.8 Vmaxpu=1.2 model=1 kW=6.69007 kvar=1.358476653747733 Phases=2

New Load.load_p5ulv20506 conn=wye bus1=p5ulv20506.1.2 kV=0.2080002494301389 Vminpu=0.8 Vmaxpu=1.2 model=1 kW=8.29008 kvar=1.6790299091465637 Phases=2

New Load.load_p5ulv20507 conn=wye bus1=p5ulv20507.1.2 kV=0.2080002494301389 Vminpu=0.8 Vmaxpu=1.2 model=1 kW=7.53008 kvar=1.529047959266903 Phases=2

New Load.load_p5ulv20508 conn=wye bus1=p5ulv20508.1.2 kV=0.2080002494301389 Vminpu=0.8 Vmaxpu=1.2 model=1 kW=7.05007 kvar=1.4315777715759745 Phases=2

New Load.load_p5ulv20511 conn=wye bus1=p5ulv20511.1.2 kV=0.2080002494301389 Vminpu=0.8 Vmaxpu=1.2 model=1 kW=7.7500800000000005 kvar=1.5696611031833951 Phases=2

New Load.load_p5ulv20517 conn=wye bus1=p5ulv20517.1.2 kV=0.2080002494301389 Vminpu=0.8 Vmaxpu=1.2 model=1 kW=11.3301 kvar=2.3006749308493317 Phases=2

New Load.load_p5ulv20519 conn=wye bus1=p5ulv20519.1.2 kV=0.2080002494301389 Vminpu=0.8 Vmaxpu=1.2 model=1 kW=9.01009 kvar=1.8295768075918357 Phases=2

New Load.load_p5ulv20520 conn=wye bus1=p5ulv20520.1.2 kV=0.2080002494301389 Vminpu=0.8 Vmaxpu=1.2 model=1 kW=7.69008 kvar=1.5615373449683438 Phases=2

New Load.load_p5ulv20521 conn=wye bus1=p5ulv20521.1.2 kV=0.2080002494301389 Vminpu=0.8 Vmaxpu=1.2 model=1 kW=6.820070000000001 kvar=1.3813016897874575 Phases=2

New Load.load_p5ulv21065 conn=wye bus1=p5ulv21065.1.2 kV=0.2080002494301389 Vminpu=0.8 Vmaxpu=1.2 model=1 kW=12.0001 kvar=2.442996045722057 Phases=2

New Load.load_p5ulv21066 conn=wye bus1=p5ulv21066.1.2 kV=0.2080002494301389 Vminpu=0.8 Vmaxpu=1.2 model=1 kW=8.540090000000001 kvar=1.7296656409592521 Phases=2

New Load.load_p5ulv21068 conn=wye bus1=p5ulv21068.1.2 kV=0.2080002494301389 Vminpu=0.8 Vmaxpu=1.2 model=1 kW=4.97005 kvar=1.009211696284033 Phases=2

New Load.load_p5ulv21072 conn=wye bus1=p5ulv21072.1.2 kV=0.2080002494301389 Vminpu=0.8 Vmaxpu=1.2 model=1 kW=6.73007 kvar=1.370116448815647 Phases=2

New Load.load_p5ulv21073 conn=wye bus1=p5ulv21073.1.2 kV=0.2080002494301389 Vminpu=0.8 Vmaxpu=1.2 model=1 kW=6.16006 kvar=1.2508535330251045 Phases=2

New Load.load_p5ulv21074 conn=wye bus1=p5ulv21074.1.2 kV=0.2080002494301389 Vminpu=0.8 Vmaxpu=1.2 model=1 kW=7.16007 kvar=1.4501635305790819 Phases=2

New Load.load_p5ulv21075 conn=wye bus1=p5ulv21075.1.2 kV=0.2080002494301389 Vminpu=0.8 Vmaxpu=1.2 model=1 kW=8.46008 kvar=1.7178925136565273 Phases=2

New Load.load_p5ulv21076 conn=wye bus1=p5ulv21076.1.2 kV=0.2080002494301389 Vminpu=0.8 Vmaxpu=1.2 model=1 kW=7.06007 kvar=1.42991004799331 Phases=2

New Load.load_p5ulv21077 conn=wye bus1=p5ulv21077.1.2 kV=0.2080002494301389 Vminpu=0.8 Vmaxpu=1.2 model=1 kW=6.84007 kvar=1.3889354528428337 Phases=2

New Load.load_p5ulv21078 conn=wye bus1=p5ulv21078.1.2 kV=0.2080002494301389 Vminpu=0.8 Vmaxpu=1.2 model=1 kW=5.54006 kvar=1.1191463774750727 Phases=2

New Load.load_p5ulv21079 conn=wye bus1=p5ulv21079.1.2 kV=0.2080002494301389 Vminpu=0.8 Vmaxpu=1.2 model=1 kW=6.40006 kvar=1.2995876115772655 Phases=2

New Load.load_p5ulv21584 conn=wye bus1=p5ulv21584.1.2 kV=0.2080002494301389 Vminpu=0.8 Vmaxpu=1.2 model=1 kW=7.74008 kvar=1.5716902780000437 Phases=2

New Load.load_p5ulv21585 conn=wye bus1=p5ulv21585.1.2 kV=0.2080002494301389 Vminpu=0.8 Vmaxpu=1.2 model=1 kW=7.73008 kvar=1.5696596913937038 Phases=2

New Load.load_p5ulv21587 conn=wye bus1=p5ulv21587.1.2 kV=0.2080002494301389 Vminpu=0.8 Vmaxpu=1.2 model=1 kW=6.29006 kvar=1.280538637790892 Phases=2

New Load.load_p5ulv21588 conn=wye bus1=p5ulv21588.1.2 kV=0.2080002494301389 Vminpu=0.8 Vmaxpu=1.2 model=1 kW=6.34006 kvar=1.2907177031558559 Phases=2

New Load.load_p5ulv21589 conn=wye bus1=p5ulv21589.1.2 kV=0.2080002494301389 Vminpu=0.8 Vmaxpu=1.2 model=1 kW=6.700070000000001 kvar=1.3605072403540732 Phases=2

New Load.load_p5ulv21591 conn=wye bus1=p5ulv21591.1.2 kV=0.2080002494301389 Vminpu=0.8 Vmaxpu=1.2 model=1 kW=6.71007 kvar=1.3590228589431081 Phases=2

New Load.load_p5ulv21594 conn=wye bus1=p5ulv21594.1.2 kV=0.2080002494301389 Vminpu=0.8 Vmaxpu=1.2 model=1 kW=7.18007 kvar=1.4617280371003216 Phases=2

New Load.load_p5ulv21598 conn=wye bus1=p5ulv21598.1.2 kV=0.2080002494301389 Vminpu=0.8 Vmaxpu=1.2 model=1 kW=6.86007 kvar=1.3894030828217663 Phases=2

New Load.load_p5ulv21599 conn=wye bus1=p5ulv21599.1.2 kV=0.2080002494301389 Vminpu=0.8 Vmaxpu=1.2 model=1 kW=9.8501 kvar=2.0001481131110053 Phases=2

New Load.load_p5ulv21600 conn=wye bus1=p5ulv21600.1.2 kV=0.2080002494301389 Vminpu=0.8 Vmaxpu=1.2 model=1 kW=7.41007 kvar=1.5085517377791555 Phases=2

New Load.load_p5ulv21601 conn=wye bus1=p5ulv21601.1.2 kV=0.2080002494301389 Vminpu=0.8 Vmaxpu=1.2 model=1 kW=6.20006 kvar=1.2589758794504644 Phases=2

New Load.load_p5ulv21604 conn=wye bus1=p5ulv21604.1.2 kV=0.2080002494301389 Vminpu=0.8 Vmaxpu=1.2 model=1 kW=5.83006 kvar=1.180790186840056 Phases=2

New Load.load_p5ulv22139 conn=wye bus1=p5ulv22139.1.2 kV=0.2080002494301389 Vminpu=0.8 Vmaxpu=1.2 model=1 kW=7.070070000000001 kvar=1.428223381875862 Phases=2

New Load.load_p5ulv22141 conn=wye bus1=p5ulv22141.1.2 kV=0.2080002494301389 Vminpu=0.8 Vmaxpu=1.2 model=1 kW=6.69007 kvar=1.358476653747733 Phases=2

New Load.load_p5ulv22142 conn=wye bus1=p5ulv22142.1.2 kV=0.2080002494301389 Vminpu=0.8 Vmaxpu=1.2 model=1 kW=5.83006 kvar=1.180790186840056 Phases=2

New Load.load_p5ulv22143 conn=wye bus1=p5ulv22143.1.2 kV=0.2080002494301389 Vminpu=0.8 Vmaxpu=1.2 model=1 kW=5.86006 kvar=1.1899359348349032 Phases=2

New Load.load_p5ulv22148 conn=wye bus1=p5ulv22148.1.2 kV=0.2080002494301389 Vminpu=0.8 Vmaxpu=1.2 model=1 kW=5.55006 kvar=1.1298884703894267 Phases=2

New Load.load_p5ulv22149 conn=wye bus1=p5ulv22149.1.2 kV=0.2080002494301389 Vminpu=0.8 Vmaxpu=1.2 model=1 kW=8.57009 kvar=1.7402309969128738 Phases=2

New Load.load_p5ulv22150 conn=wye bus1=p5ulv22150.1.2 kV=0.2080002494301389 Vminpu=0.8 Vmaxpu=1.2 model=1 kW=7.06007 kvar=1.42991004799331 Phases=2

New Load.load_p5ulv22153 conn=wye bus1=p5ulv22153.1.2 kV=0.2080002494301389 Vminpu=0.8 Vmaxpu=1.2 model=1 kW=6.47006 kvar=1.3104124753889972 Phases=2

New Load.load_p5ulv22154 conn=wye bus1=p5ulv22154.1.2 kV=0.2080002494301389 Vminpu=0.8 Vmaxpu=1.2 model=1 kW=7.48007 kvar=1.5188929956485966 Phases=2

New Load.load_p5ulv22155 conn=wye bus1=p5ulv22155.1.2 kV=0.2080002494301389 Vminpu=0.8 Vmaxpu=1.2 model=1 kW=5.850060000000001 kvar=1.19096286257921 Phases=2

New Load.load_p5ulv22156 conn=wye bus1=p5ulv22156.1.2 kV=0.2080002494301389 Vminpu=0.8 Vmaxpu=1.2 model=1 kW=5.770060000000001 kvar=1.1686380972885935 Phases=2

New Load.load_p5ulv22157 conn=wye bus1=p5ulv22157.1.2 kV=0.2080002494301389 Vminpu=0.8 Vmaxpu=1.2 model=1 kW=6.950070000000001 kvar=1.4112719055125744 Phases=2

New Load.load_p5ulv22158 conn=wye bus1=p5ulv22158.1.2 kV=0.2080002494301389 Vminpu=0.8 Vmaxpu=1.2 model=1 kW=7.280070000000001 kvar=1.4782812635217957 Phases=2

New Load.load_p5ulv22700 conn=wye bus1=p5ulv22700.1.2 kV=0.2080002494301389 Vminpu=0.8 Vmaxpu=1.2 model=1 kW=6.820070000000001 kvar=1.3813016897874575 Phases=2

New Load.load_p5ulv22701 conn=wye bus1=p5ulv22701.1.2 kV=0.2080002494301389 Vminpu=0.8 Vmaxpu=1.2 model=1 kW=7.26007 kvar=1.4704170131648537 Phases=2

New Load.load_p5ulv22704 conn=wye bus1=p5ulv22704.1.2 kV=0.2080002494301389 Vminpu=0.8 Vmaxpu=1.2 model=1 kW=6.34006 kvar=1.2907177031558559 Phases=2

New Load.load_p5ulv22719 conn=wye bus1=p5ulv22719.1.2 kV=0.2080002494301389 Vminpu=0.8 Vmaxpu=1.2 model=1 kW=6.570070000000001 kvar=1.3306679833230275 Phases=2

New Load.load_p5ulv22720 conn=wye bus1=p5ulv22720.1.2 kV=0.2080002494301389 Vminpu=0.8 Vmaxpu=1.2 model=1 kW=7.46007 kvar=1.510923978336398 Phases=2

New Load.load_p5ulv22721 conn=wye bus1=p5ulv22721.1.2 kV=0.2080002494301389 Vminpu=0.8 Vmaxpu=1.2 model=1 kW=5.93006 kvar=1.2010436694258284 Phases=2

New Load.load_p5ulv22722 conn=wye bus1=p5ulv22722.1.2 kV=0.2080002494301389 Vminpu=0.8 Vmaxpu=1.2 model=1 kW=5.98006 kvar=1.2111704107187142 Phases=2

New Load.load_p5ulv22723 conn=wye bus1=p5ulv22723.1.2 kV=0.2080002494301389 Vminpu=0.8 Vmaxpu=1.2 model=1 kW=7.490070000000001 kvar=1.5209235822549367 Phases=2

New Load.load_p5ulv22724 conn=wye bus1=p5ulv22724.1.2 kV=0.2080002494301389 Vminpu=0.8 Vmaxpu=1.2 model=1 kW=8.82009 kvar=1.790995662071375 Phases=2

New Load.load_p5ulv22725 conn=wye bus1=p5ulv22725.1.2 kV=0.2080002494301389 Vminpu=0.8 Vmaxpu=1.2 model=1 kW=8.870090000000001 kvar=1.8011485951030752 Phases=2

New Load.load_p5ulv22726 conn=wye bus1=p5ulv22726.1.2 kV=0.2080002494301389 Vminpu=0.8 Vmaxpu=1.2 model=1 kW=8.75009 kvar=1.7813547611863327 Phases=2

New Load.load_p5ulv22727 conn=wye bus1=p5ulv22727.1.2 kV=0.2080002494301389 Vminpu=0.8 Vmaxpu=1.2 model=1 kW=5.82006 kvar=1.1787648385814788 Phases=2

New Load.load_p5ulv23251 conn=wye bus1=p5ulv23251.1.2 kV=0.2080002494301389 Vminpu=0.8 Vmaxpu=1.2 model=1 kW=7.95008 kvar=1.6184876795338383 Phases=2

New Load.load_p5ulv23254 conn=wye bus1=p5ulv23254.1.2 kV=0.2080002494301389 Vminpu=0.8 Vmaxpu=1.2 model=1 kW=8.59009 kvar=1.7397923822521382 Phases=2

New Load.load_p5ulv23255 conn=wye bus1=p5ulv23255.1.2 kV=0.2080002494301389 Vminpu=0.8 Vmaxpu=1.2 model=1 kW=7.450070000000001 kvar=1.5088986300778207 Phases=2

New Load.load_p5ulv23257 conn=wye bus1=p5ulv23257.1.2 kV=0.2080002494301389 Vminpu=0.8 Vmaxpu=1.2 model=1 kW=5.88006 kvar=1.1909169281329426 Phases=2

New Load.load_p5ulv23258 conn=wye bus1=p5ulv23258.1.2 kV=0.2080002494301389 Vminpu=0.8 Vmaxpu=1.2 model=1 kW=7.62008 kvar=1.5513058481250768 Phases=2

New Load.load_p5ulv23844 conn=wye bus1=p5ulv23844.1.2 kV=0.2080002494301389 Vminpu=0.8 Vmaxpu=1.2 model=1 kW=8.90009 kvar=1.8118919572812247 Phases=2

New Load.load_p5ulv23845 conn=wye bus1=p5ulv23845.1.2 kV=0.2080002494301389 Vminpu=0.8 Vmaxpu=1.2 model=1 kW=9.01009 kvar=1.8295768075918357 Phases=2

New Load.load_p5ulv23846 conn=wye bus1=p5ulv23846.1.2 kV=0.2080002494301389 Vminpu=0.8 Vmaxpu=1.2 model=1 kW=6.71007 kvar=1.3590228589431081 Phases=2

New Load.load_p5ulv23854 conn=wye bus1=p5ulv23854.1.2 kV=0.2080002494301389 Vminpu=0.8 Vmaxpu=1.2 model=1 kW=10.340100000000001 kvar=2.0996468568216677 Phases=2

New Load.load_p5ulv23855 conn=wye bus1=p5ulv23855.1.2 kV=0.2080002494301389 Vminpu=0.8 Vmaxpu=1.2 model=1 kW=8.01008 kvar=1.6307025579717946 Phases=2

New Load.load_p5ulv23859 conn=wye bus1=p5ulv23859.1.2 kV=0.2080002494301389 Vminpu=0.8 Vmaxpu=1.2 model=1 kW=7.76008 kvar=1.5798072311469755 Phases=2

New Load.load_p5ulv23860 conn=wye bus1=p5ulv23860.1.2 kV=0.2080002494301389 Vminpu=0.8 Vmaxpu=1.2 model=1 kW=6.52007 kvar=1.3205412420301414 Phases=2

New Load.load_p5ulv23861 conn=wye bus1=p5ulv23861.1.2 kV=0.2080002494301389 Vminpu=0.8 Vmaxpu=1.2 model=1 kW=7.42007 kvar=1.510587550852148 Phases=2

New Load.load_p5ulv23862 conn=wye bus1=p5ulv23862.1.2 kV=0.2080002494301389 Vminpu=0.8 Vmaxpu=1.2 model=1 kW=7.64008 kvar=1.5513844119366436 Phases=2

New Load.load_p5ulv23863 conn=wye bus1=p5ulv23863.1.2 kV=0.2080002494301389 Vminpu=0.8 Vmaxpu=1.2 model=1 kW=6.69007 kvar=1.358476653747733 Phases=2

New Load.load_p5ulv23864 conn=wye bus1=p5ulv23864.1.2 kV=0.2080002494301389 Vminpu=0.8 Vmaxpu=1.2 model=1 kW=7.86008 kvar=1.6001653618769034 Phases=2

New Load.load_p5ulv24408 conn=wye bus1=p5ulv24408.1.2 kV=0.2080002494301389 Vminpu=0.8 Vmaxpu=1.2 model=1 kW=8.34008 kvar=1.6891566504394495 Phases=2

New Load.load_p5ulv24409 conn=wye bus1=p5ulv24409.1.2 kV=0.2080002494301389 Vminpu=0.8 Vmaxpu=1.2 model=1 kW=5.44005 kvar=1.0989433780109366 Phases=2

New Load.load_p5ulv24410 conn=wye bus1=p5ulv24410.1.2 kV=0.2080002494301389 Vminpu=0.8 Vmaxpu=1.2 model=1 kW=6.44006 kvar=1.3110758338857833 Phases=2

New Load.load_p5ulv24416 conn=wye bus1=p5ulv24416.1.2 kV=0.2080002494301389 Vminpu=0.8 Vmaxpu=1.2 model=1 kW=7.57008 kvar=1.5411267827601127 Phases=2

New Load.load_p5ulv24417 conn=wye bus1=p5ulv24417.1.2 kV=0.2080002494301389 Vminpu=0.8 Vmaxpu=1.2 model=1 kW=6.65007 kvar=1.3503543073223732 Phases=2

New Load.load_p5ulv24418 conn=wye bus1=p5ulv24418.1.2 kV=0.2080002494301389 Vminpu=0.8 Vmaxpu=1.2 model=1 kW=8.09008 kvar=1.6385229439750197 Phases=2

New Load.load_p5ulv24425 conn=wye bus1=p5ulv24425.1.2 kV=0.2080002494301389 Vminpu=0.8 Vmaxpu=1.2 model=1 kW=7.070070000000001 kvar=1.4393340932974013 Phases=2

New Load.load_p5ulv24955 conn=wye bus1=p5ulv24955.1.2 kV=0.2080002494301389 Vminpu=0.8 Vmaxpu=1.2 model=1 kW=7.73008 kvar=1.5696596913937038 Phases=2

New Load.load_p5ulv24961 conn=wye bus1=p5ulv24961.1.2 kV=0.2080002494301389 Vminpu=0.8 Vmaxpu=1.2 model=1 kW=6.49006 kvar=1.3212548992507473 Phases=2

New Load.load_p5ulv24962 conn=wye bus1=p5ulv24962.1.2 kV=0.2080002494301389 Vminpu=0.8 Vmaxpu=1.2 model=1 kW=8.30008 kvar=1.689741137088585 Phases=2

New Load.load_p5ulv24965 conn=wye bus1=p5ulv24965.1.2 kV=0.2080002494301389 Vminpu=0.8 Vmaxpu=1.2 model=1 kW=7.630080000000001 kvar=1.5493538253303036 Phases=2

New Load.load_p5ulv24966 conn=wye bus1=p5ulv24966.1.2 kV=0.2080002494301389 Vminpu=0.8 Vmaxpu=1.2 model=1 kW=8.28008 kvar=1.6813419547424064 Phases=2

New Load.load_p5ulv24969 conn=wye bus1=p5ulv24969.1.2 kV=0.2080002494301389 Vminpu=0.8 Vmaxpu=1.2 model=1 kW=7.04007 kvar=1.4295471849696346 Phases=2

New Load.load_p5ulv24970 conn=wye bus1=p5ulv24970.1.2 kV=0.2080002494301389 Vminpu=0.8 Vmaxpu=1.2 model=1 kW=5.94006 kvar=1.2092851802361448 Phases=2

New Load.load_p5ulv24971 conn=wye bus1=p5ulv24971.1.2 kV=0.2080002494301389 Vminpu=0.8 Vmaxpu=1.2 model=1 kW=7.58008 kvar=1.5392008922986034 Phases=2

New Load.load_p5ulv25543 conn=wye bus1=p5ulv25543.1.2 kV=0.2080002494301389 Vminpu=0.8 Vmaxpu=1.2 model=1 kW=6.15006 kvar=1.2488229464187643 Phases=2

New Load.load_p5ulv25545 conn=wye bus1=p5ulv25545.1.2 kV=0.2080002494301389 Vminpu=0.8 Vmaxpu=1.2 model=1 kW=6.34006 kvar=1.2907177031558559 Phases=2

New Load.load_p5ulv25546 conn=wye bus1=p5ulv25546.1.2 kV=0.2080002494301389 Vminpu=0.8 Vmaxpu=1.2 model=1 kW=6.77007 kvar=1.3711749484945712 Phases=2

New Load.load_p5ulv25547 conn=wye bus1=p5ulv25547.1.2 kV=0.2080002494301389 Vminpu=0.8 Vmaxpu=1.2 model=1 kW=10.090100000000001 kvar=2.048882191663167 Phases=2

New Load.load_p5ulv25548 conn=wye bus1=p5ulv25548.1.2 kV=0.2080002494301389 Vminpu=0.8 Vmaxpu=1.2 model=1 kW=9.08009 kvar=1.8390344469224207 Phases=2

New Load.load_p5ulv25553 conn=wye bus1=p5ulv25553.1.2 kV=0.2080002494301389 Vminpu=0.8 Vmaxpu=1.2 model=1 kW=8.57009 kvar=1.7402309969128738 Phases=2

New Load.load_p5ulv25554 conn=wye bus1=p5ulv25554.1.2 kV=0.2080002494301389 Vminpu=0.8 Vmaxpu=1.2 model=1 kW=6.820070000000001 kvar=1.388438766472582 Phases=2

New Load.load_p5ulv25555 conn=wye bus1=p5ulv25555.1.2 kV=0.2080002494301389 Vminpu=0.8 Vmaxpu=1.2 model=1 kW=7.5000800000000005 kvar=1.5190273967189654 Phases=2

New Load.load_p5ulv25556 conn=wye bus1=p5ulv25556.1.2 kV=0.2080002494301389 Vminpu=0.8 Vmaxpu=1.2 model=1 kW=6.17006 kvar=1.249652027631681 Phases=2

New Load.load_p5ulv25561 conn=wye bus1=p5ulv25561.1.2 kV=0.2080002494301389 Vminpu=0.8 Vmaxpu=1.2 model=1 kW=8.31008 kvar=1.6917769501615778 Phases=2

New Load.load_p5ulv25562 conn=wye bus1=p5ulv25562.1.2 kV=0.2080002494301389 Vminpu=0.8 Vmaxpu=1.2 model=1 kW=5.71006 kvar=1.1594771357398026 Phases=2

New Load.load_p5ulv25563 conn=wye bus1=p5ulv25563.1.2 kV=0.2080002494301389 Vminpu=0.8 Vmaxpu=1.2 model=1 kW=7.13007 kvar=1.4515489717353578 Phases=2

New Load.load_p5ulv26088 conn=wye bus1=p5ulv26088.1.2 kV=0.2080002494301389 Vminpu=0.8 Vmaxpu=1.2 model=1 kW=6.570070000000001 kvar=1.3306679833230275 Phases=2

New Load.load_p5ulv26090 conn=wye bus1=p5ulv26090.1.2 kV=0.2080002494301389 Vminpu=0.8 Vmaxpu=1.2 model=1 kW=5.30005 kvar=1.0789911077515342 Phases=2

New Load.load_p5ulv26091 conn=wye bus1=p5ulv26091.1.2 kV=0.2080002494301389 Vminpu=0.8 Vmaxpu=1.2 model=1 kW=8.25008 kvar=1.6795620717236213 Phases=2

New Load.load_p5ulv26093 conn=wye bus1=p5ulv26093.1.2 kV=0.2080002494301389 Vminpu=0.8 Vmaxpu=1.2 model=1 kW=5.90006 kvar=1.2011419279441737 Phases=2

New Load.load_p5ulv26094 conn=wye bus1=p5ulv26094.1.2 kV=0.2080002494301389 Vminpu=0.8 Vmaxpu=1.2 model=1 kW=6.20006 kvar=1.2589758794504644 Phases=2

New Load.load_p5ulv26095 conn=wye bus1=p5ulv26095.1.2 kV=0.2080002494301389 Vminpu=0.8 Vmaxpu=1.2 model=1 kW=5.58006 kvar=1.1301564803756265 Phases=2

New Load.load_p5ulv26098 conn=wye bus1=p5ulv26098.1.2 kV=0.2080002494301389 Vminpu=0.8 Vmaxpu=1.2 model=1 kW=8.02008 kvar=1.628546702977565 Phases=2

New Load.load_p5ulv26100 conn=wye bus1=p5ulv26100.1.2 kV=0.2080002494301389 Vminpu=0.8 Vmaxpu=1.2 model=1 kW=6.80007 kvar=1.3808131064174733 Phases=2

New Load.load_p5ulv26101 conn=wye bus1=p5ulv26101.1.2 kV=0.2080002494301389 Vminpu=0.8 Vmaxpu=1.2 model=1 kW=5.55006 kvar=1.1298884703894267 Phases=2

New Load.load_p5ulv26102 conn=wye bus1=p5ulv26102.1.2 kV=0.2080002494301389 Vminpu=0.8 Vmaxpu=1.2 model=1 kW=7.85008 kvar=1.5899145857691672 Phases=2

New Load.load_p5ulv26103 conn=wye bus1=p5ulv26103.1.2.3 kV=0.48 Vminpu=0.8 Vmaxpu=1.2 model=1 kW=46.7305 kvar=9.489032740757338 Phases=3

New Load.load_p5ulv26104 conn=wye bus1=p5ulv26104.1.2 kV=0.2080002494301389 Vminpu=0.8 Vmaxpu=1.2 model=1 kW=6.36006 kvar=1.2914652651519052 Phases=2

New Load.load_p5ulv26105 conn=wye bus1=p5ulv26105.1.2 kV=0.2080002494301389 Vminpu=0.8 Vmaxpu=1.2 model=1 kW=8.38008 kvar=1.7016478208058066 Phases=2

New Load.load_p5ulv26641 conn=wye bus1=p5ulv26641.1.2 kV=0.2080002494301389 Vminpu=0.8 Vmaxpu=1.2 model=1 kW=8.12008 kvar=1.6488525690409657 Phases=2

New Load.load_p5ulv26642 conn=wye bus1=p5ulv26642.1.2 kV=0.2080002494301389 Vminpu=0.8 Vmaxpu=1.2 model=1 kW=6.45006 kvar=1.3097405446089656 Phases=2

New Load.load_p5ulv26643 conn=wye bus1=p5ulv26643.1.2 kV=0.2080002494301389 Vminpu=0.8 Vmaxpu=1.2 model=1 kW=5.55006 kvar=1.1298884703894267 Phases=2

New Load.load_p5ulv26650 conn=wye bus1=p5ulv26650.1.2 kV=0.2080002494301389 Vminpu=0.8 Vmaxpu=1.2 model=1 kW=6.52007 kvar=1.3205412420301414 Phases=2

New Load.load_p5ulv26651 conn=wye bus1=p5ulv26651.1.2 kV=0.2080002494301389 Vminpu=0.8 Vmaxpu=1.2 model=1 kW=7.10007 kvar=1.4417307046076748 Phases=2

New Load.load_p5ulv26652 conn=wye bus1=p5ulv26652.1.2 kV=0.2080002494301389 Vminpu=0.8 Vmaxpu=1.2 model=1 kW=6.94007 kvar=1.4092413189062343 Phases=2

New Load.load_p5ulv26656 conn=wye bus1=p5ulv26656.1.2 kV=0.2080002494301389 Vminpu=0.8 Vmaxpu=1.2 model=1 kW=5.33005 kvar=1.0795207485629381 Phases=2

New Load.load_p5ulv26657 conn=wye bus1=p5ulv26657.1.2 kV=0.2080002494301389 Vminpu=0.8 Vmaxpu=1.2 model=1 kW=7.66008 kvar=1.5594491004170477 Phases=2

New Load.load_p5ulv27187 conn=wye bus1=p5ulv27187.1.2 kV=0.2080002494301389 Vminpu=0.8 Vmaxpu=1.2 model=1 kW=7.9200800000000005 kvar=1.6082408369141645 Phases=2

New Load.load_p5ulv27188 conn=wye bus1=p5ulv27188.1.2 kV=0.2080002494301389 Vminpu=0.8 Vmaxpu=1.2 model=1 kW=6.28006 kvar=1.2686336247849492 Phases=2

New Load.load_p5ulv27190 conn=wye bus1=p5ulv27190.1.2 kV=0.2080002494301389 Vminpu=0.8 Vmaxpu=1.2 model=1 kW=5.43005 kvar=1.0997742311487098 Phases=2

New Load.load_p5ulv27191 conn=wye bus1=p5ulv27191.1.2 kV=0.2080002494301389 Vminpu=0.8 Vmaxpu=1.2 model=1 kW=7.200070000000001 kvar=1.4582649236133909 Phases=2

New Load.load_p5ulv27192 conn=wye bus1=p5ulv27192.1.2 kV=0.2080002494301389 Vminpu=0.8 Vmaxpu=1.2 model=1 kW=6.350060000000001 kvar=1.2894346785455655 Phases=2

New Load.load_p5ulv27197 conn=wye bus1=p5ulv27197.1.2 kV=0.2080002494301389 Vminpu=0.8 Vmaxpu=1.2 model=1 kW=7.7500800000000005 kvar=1.5696611031833951 Phases=2

New Load.load_p5ulv27205 conn=wye bus1=p5ulv27205.1.2 kV=0.2080002494301389 Vminpu=0.8 Vmaxpu=1.2 model=1 kW=6.73007 kvar=1.370116448815647 Phases=2

New Load.load_p5ulv27209 conn=wye bus1=p5ulv27209.1.2 kV=0.2080002494301389 Vminpu=0.8 Vmaxpu=1.2 model=1 kW=6.77007 kvar=1.3711749484945712 Phases=2

New Load.load_p5ulv27210 conn=wye bus1=p5ulv27210.1.2 kV=0.2080002494301389 Vminpu=0.8 Vmaxpu=1.2 model=1 kW=7.93008 kvar=1.610271423520505 Phases=2

New Load.load_p5ulv27211 conn=wye bus1=p5ulv27211.1.2 kV=0.2080002494301389 Vminpu=0.8 Vmaxpu=1.2 model=1 kW=4.97005 kvar=1.009211696284033 Phases=2

New Load.load_p5ulv27765 conn=wye bus1=p5ulv27765.1.2 kV=0.2080002494301389 Vminpu=0.8 Vmaxpu=1.2 model=1 kW=7.25007 kvar=1.4683916649062767 Phases=2

New Load.load_p5ulv27770 conn=wye bus1=p5ulv27770.1.2 kV=0.2080002494301389 Vminpu=0.8 Vmaxpu=1.2 model=1 kW=5.57006 kvar=1.131048923251042 Phases=2

New Load.load_p5ulv27776 conn=wye bus1=p5ulv27776.1.2 kV=0.2080002494301389 Vminpu=0.8 Vmaxpu=1.2 model=1 kW=7.83008 kvar=1.5899655574571043 Phases=2

New Load.load_p5ulv27777 conn=wye bus1=p5ulv27777.1.2 kV=0.2080002494301389 Vminpu=0.8 Vmaxpu=1.2 model=1 kW=1.88002 kvar=0.37978245228042407 Phases=2

New Load.load_p5ulv27778 conn=wye bus1=p5ulv27778.1.2 kV=0.2080002494301389 Vminpu=0.8 Vmaxpu=1.2 model=1 kW=9.6101 kvar=1.9514140345588442 Phases=2

New Load.load_p5ulv27779 conn=wye bus1=p5ulv27779.1.2 kV=0.2080002494301389 Vminpu=0.8 Vmaxpu=1.2 model=1 kW=6.90007 kvar=1.4011189724808741 Phases=2

New Load.load_p5ulv27780 conn=wye bus1=p5ulv27780.1.2 kV=0.2080002494301389 Vminpu=0.8 Vmaxpu=1.2 model=1 kW=4.880050000000001 kvar=0.9909364168269728 Phases=2

New Load.load_p5ulv27782 conn=wye bus1=p5ulv27782.1.2 kV=0.2080002494301389 Vminpu=0.8 Vmaxpu=1.2 model=1 kW=7.25007 kvar=1.4683916649062767 Phases=2

New Load.load_p5ulv28373 conn=wye bus1=p5ulv28373.1.2 kV=0.2080002494301389 Vminpu=0.8 Vmaxpu=1.2 model=1 kW=6.38006 kvar=1.298860955447827 Phases=2

New Load.load_p5ulv28374 conn=wye bus1=p5ulv28374.1.2 kV=0.2080002494301389 Vminpu=0.8 Vmaxpu=1.2 model=1 kW=6.55007 kvar=1.3300484412589724 Phases=2

New Load.load_p5ulv28375 conn=wye bus1=p5ulv28375.1.2 kV=0.2080002494301389 Vminpu=0.8 Vmaxpu=1.2 model=1 kW=6.100060000000001 kvar=1.2386700133870643 Phases=2

New Load.load_p5ulv28376 conn=wye bus1=p5ulv28376.1.2 kV=0.2080002494301389 Vminpu=0.8 Vmaxpu=1.2 model=1 kW=6.13006 kvar=1.2415506345973724 Phases=2

New Load.load_p5ulv28380 conn=wye bus1=p5ulv28380.1.2 kV=0.2080002494301389 Vminpu=0.8 Vmaxpu=1.2 model=1 kW=6.48006 kvar=1.3192190861777544 Phases=2

New Load.load_p5ulv28381 conn=wye bus1=p5ulv28381.1.2 kV=0.2080002494301389 Vminpu=0.8 Vmaxpu=1.2 model=1 kW=6.60007 kvar=1.3402013742906727 Phases=2

New Load.load_p5ulv28382 conn=wye bus1=p5ulv28382.1.2 kV=0.2080002494301389 Vminpu=0.8 Vmaxpu=1.2 model=1 kW=8.66009 kvar=1.7585062763699344 Phases=2

New Load.load_p5ulv28383 conn=wye bus1=p5ulv28383.1.2.3 kV=0.48 Vminpu=0.8 Vmaxpu=1.2 model=1 kW=20.5102 kvar=4.164773741335555 Phases=3

New Load.load_p5ulv28384 conn=wye bus1=p5ulv28384.1.2 kV=0.2080002494301389 Vminpu=0.8 Vmaxpu=1.2 model=1 kW=6.60007 kvar=1.3402013742906727 Phases=2

New Load.load_p5ulv28942 conn=wye bus1=p5ulv28942.1.2 kV=0.2080002494301389 Vminpu=0.8 Vmaxpu=1.2 model=1 kW=10.0001 kvar=2.0306069122061063 Phases=2

New Load.load_p5ulv28944 conn=wye bus1=p5ulv28944.1.2 kV=0.2080002494301389 Vminpu=0.8 Vmaxpu=1.2 model=1 kW=3.48003 kvar=0.71028378024263 Phases=2

New Load.load_p5ulv28952 conn=wye bus1=p5ulv28952.1.2 kV=0.2080002494301389 Vminpu=0.8 Vmaxpu=1.2 model=1 kW=9.120090000000001 kvar=1.8519132602615762 Phases=2

New Load.load_p5ulv28953 conn=wye bus1=p5ulv28953.1.2 kV=0.2080002494301389 Vminpu=0.8 Vmaxpu=1.2 model=1 kW=8.60009 kvar=1.7508175650914415 Phases=2

New Load.load_p5ulv28954 conn=wye bus1=p5ulv28954.1.2 kV=0.2080002494301389 Vminpu=0.8 Vmaxpu=1.2 model=1 kW=12.2201 kvar=2.481397138813596 Phases=2

New Load.load_p5ulv28955 conn=wye bus1=p5ulv28955.1.2 kV=0.2080002494301389 Vminpu=0.8 Vmaxpu=1.2 model=1 kW=8.11008 kvar=1.6510606887017225 Phases=2

New Load.load_p5ulv28957 conn=wye bus1=p5ulv28957.1.2 kV=0.2080002494301389 Vminpu=0.8 Vmaxpu=1.2 model=1 kW=7.33007 kvar=1.488434196553496 Phases=2

New Load.load_p5ulv28958 conn=wye bus1=p5ulv28958.1.2 kV=0.2080002494301389 Vminpu=0.8 Vmaxpu=1.2 model=1 kW=7.47007 kvar=1.520766616217112 Phases=2

New Load.load_p5ulv29491 conn=wye bus1=p5ulv29491.1.2 kV=0.2080002494301389 Vminpu=0.8 Vmaxpu=1.2 model=1 kW=7.44007 kvar=1.5107706492232365 Phases=2

New Load.load_p5ulv29501 conn=wye bus1=p5ulv29501.1.2 kV=0.2080002494301389 Vminpu=0.8 Vmaxpu=1.2 model=1 kW=5.62006 kvar=1.141201856282742 Phases=2

New Load.load_p5ulv29502 conn=wye bus1=p5ulv29502.1.2 kV=0.2080002494301389 Vminpu=0.8 Vmaxpu=1.2 model=1 kW=7.69008 kvar=1.5615373449683438 Phases=2

New Load.load_p5ulv29503 conn=wye bus1=p5ulv29503.1.2 kV=0.2080002494301389 Vminpu=0.8 Vmaxpu=1.2 model=1 kW=5.61006 kvar=1.1391712696764018 Phases=2

New Load.load_p5ulv29504 conn=wye bus1=p5ulv29504.1.2 kV=0.2080002494301389 Vminpu=0.8 Vmaxpu=1.2 model=1 kW=5.79006 kvar=1.1696488258905717 Phases=2

New Load.load_p5ulv29505 conn=wye bus1=p5ulv29505.1.2 kV=0.2080002494301389 Vminpu=0.8 Vmaxpu=1.2 model=1 kW=13.1001 kvar=2.660088760171519 Phases=2

New Load.load_p5ulv30041 conn=wye bus1=p5ulv30041.1.2 kV=0.2080002494301389 Vminpu=0.8 Vmaxpu=1.2 model=1 kW=5.850060000000001 kvar=1.19096286257921 Phases=2

New Load.load_p5ulv30045 conn=wye bus1=p5ulv30045.1.2 kV=0.2080002494301389 Vminpu=0.8 Vmaxpu=1.2 model=1 kW=6.89007 kvar=1.399088385874534 Phases=2

New Load.load_p5ulv30046 conn=wye bus1=p5ulv30046.1.2 kV=0.2080002494301389 Vminpu=0.8 Vmaxpu=1.2 model=1 kW=7.79008 kvar=1.581843211031744 Phases=2

New Load.load_p5ulv30048 conn=wye bus1=p5ulv30048.1.2 kV=0.2080002494301389 Vminpu=0.8 Vmaxpu=1.2 model=1 kW=9.5201 kvar=1.9281517956480756 Phases=2

New Load.load_p5ulv30051 conn=wye bus1=p5ulv30051.1.2 kV=0.2080002494301389 Vminpu=0.8 Vmaxpu=1.2 model=1 kW=7.16007 kvar=1.4501635305790819 Phases=2

New Load.load_p5ulv30052 conn=wye bus1=p5ulv30052.1.2 kV=0.2080002494301389 Vminpu=0.8 Vmaxpu=1.2 model=1 kW=6.01006 kvar=1.2203947339300039 Phases=2

New Load.load_p5ulv30055 conn=wye bus1=p5ulv30055.1.2 kV=0.2080002494301389 Vminpu=0.8 Vmaxpu=1.2 model=1 kW=6.00006 kvar=1.2215000586741016 Phases=2

New Load.load_p5ulv30589 conn=wye bus1=p5ulv30589.1.2 kV=0.2080002494301389 Vminpu=0.8 Vmaxpu=1.2 model=1 kW=7.34007 kvar=1.4904647831598359 Phases=2

New Load.load_p5ulv30590 conn=wye bus1=p5ulv30590.1.2 kV=0.2080002494301389 Vminpu=0.8 Vmaxpu=1.2 model=1 kW=5.29005 kvar=1.0686419089616372 Phases=2

New Load.load_p5ulv30591 conn=wye bus1=p5ulv30591.1.2 kV=0.2080002494301389 Vminpu=0.8 Vmaxpu=1.2 model=1 kW=6.03006 kvar=1.2212971520116003 Phases=2

New Load.load_p5ulv30592 conn=wye bus1=p5ulv30592.1.2 kV=0.2080002494301389 Vminpu=0.8 Vmaxpu=1.2 model=1 kW=7.450070000000001 kvar=1.5088986300778207 Phases=2

New Load.load_p5ulv30603 conn=wye bus1=p5ulv30603.1.2 kV=0.2080002494301389 Vminpu=0.8 Vmaxpu=1.2 model=1 kW=8.12008 kvar=1.6488525690409657 Phases=2

New Load.load_p5ulv30606 conn=wye bus1=p5ulv30606.1.2 kV=0.2080002494301389 Vminpu=0.8 Vmaxpu=1.2 model=1 kW=8.43008 kvar=1.7118007538375068 Phases=2

New Load.load_p5ulv31150 conn=wye bus1=p5ulv31150.1.2 kV=0.2080002494301389 Vminpu=0.8 Vmaxpu=1.2 model=1 kW=7.7100800000000005 kvar=1.5696281657820117 Phases=2

New Load.load_p5ulv31152 conn=wye bus1=p5ulv31152.1.2 kV=0.2080002494301389 Vminpu=0.8 Vmaxpu=1.2 model=1 kW=5.380050000000001 kvar=1.0896474898558242 Phases=2

New Load.load_p5ulv31153 conn=wye bus1=p5ulv31153.1.2 kV=0.2080002494301389 Vminpu=0.8 Vmaxpu=1.2 model=1 kW=6.140060000000001 kvar=1.2500014416960006 Phases=2

New Load.load_p5ulv31163 conn=wye bus1=p5ulv31163.1.2 kV=0.2080002494301389 Vminpu=0.8 Vmaxpu=1.2 model=1 kW=6.40006 kvar=1.2995876115772655 Phases=2

New Load.load_p5ulv31166 conn=wye bus1=p5ulv31166.1.2 kV=0.2080002494301389 Vminpu=0.8 Vmaxpu=1.2 model=1 kW=8.09008 kvar=1.6385229439750197 Phases=2

New Load.load_p5ulv31167 conn=wye bus1=p5ulv31167.1.2 kV=0.2080002494301389 Vminpu=0.8 Vmaxpu=1.2 model=1 kW=5.380050000000001 kvar=1.0896474898558242 Phases=2

New Load.load_p5ulv31168 conn=wye bus1=p5ulv31168.1.2 kV=0.2080002494301389 Vminpu=0.8 Vmaxpu=1.2 model=1 kW=8.12008 kvar=1.6488525690409657 Phases=2

New Load.load_p5ulv31671 conn=wye bus1=p5ulv31671.1.2 kV=0.2080002494301389 Vminpu=0.8 Vmaxpu=1.2 model=1 kW=6.59007 kvar=1.341615065793748 Phases=2

New Load.load_p5ulv31672 conn=wye bus1=p5ulv31672.1.2 kV=0.2080002494301389 Vminpu=0.8 Vmaxpu=1.2 model=1 kW=3.9800400000000002 kvar=0.8102617463034154 Phases=2
