New Line.l(r:p1rdt2lv-p1rlv3) Units=km Length=0.0539758 bus1=p1rdt2lv.1.2 bus2=p1rlv3.1.2 switch=n enabled=y phases=2 Linecode=1P_OH_AL_4/0_Zuzara_0_416_0_2_2_2_2_2_2_2_2_2_2_2_2_2_2_2_2_2_2_2_2_2_2_2_2_2_2_2_2_2

New Line.l(r:p1rdt2lv-p1rlv2296) Units=km Length=0.02807 bus1=p1rdt2lv.1.2 bus2=p1rlv2296.1.2 switch=n enabled=y phases=2 Linecode=1P_OH_AL_4/0_Zuzara_0_416_0_2_2_2_2_2_2_2_2_2_2_2_2_2_2_2_2_2_2_2_2_2_2_2_2_2_2_2_2_2

New Line.l(r:p1rdm12-p1rlv7) Units=km Length=0.00398704 bus1=p1rdm12.1.2 bus2=p1rlv7.1.2 switch=n enabled=y phases=2 Linecode=1P_OH_AL_4_Periwinkle_0_416_0_2_2_2_2_2_2_2_2_2_2_2_2_2_2_2_2_2_2_2_2_2_2_2_2_2_2_2_2_2

New Line.l(r:p1rdm12-p1rdt6lv) Units=km Length=0.018572100000000005 bus1=p1rdt6lv.1.2 bus2=p1rdm12.1.2 switch=n enabled=y phases=2 Linecode=1P_OH_AL_2/0_Rucina_0_416_0_2_2_2_2_2_2_2_2_2_2_2_2_2_2_2_2_2_2_2_2_2_2_2_2_2_2_2_2_2

New Line.l(r:p1rdm13-p1rlv9331) Units=km Length=0.00569526 bus1=p1rdm13.1.2 bus2=p1rlv9331.1.2 switch=n enabled=y phases=2 Linecode=1P_OH_AL_2/0_Rucina_0_416_0_2_2_2_2_2_2_2_2_2_2_2_2_2_2_2_2_2_2_2_2_2_2_2_2_2_2_2_2_2

New Line.l(r:p1rdm13-p1rdt6lv) Units=km Length=0.0585211 bus1=p1rdt6lv.1.2 bus2=p1rdm13.1.2 switch=n enabled=y phases=2 Linecode=1P_OH_AL_4/0_Zuzara_0_416_0_2_2_2_2_2_2_2_2_2_2_2_2_2_2_2_2_2_2_2_2_2_2_2_2_2_2_2_2_2

New Line.l(r:p1rdt7lv-p1rlv8) Units=km Length=0.0306339 bus1=p1rdt7lv.1.2 bus2=p1rlv8.1.2 switch=n enabled=y phases=2 Linecode=1P_OH_AL_4/0_Zuzara_0_416_0_2_2_2_2_2_2_2_2_2_2_2_2_2_2_2_2_2_2_2_2_2_2_2_2_2_2_2_2_2

New Line.l(r:p1rdt8lv-p1rlv9) Units=km Length=0.016519 bus1=p1rdt8lv.1.2 bus2=p1rlv9.1.2 switch=n enabled=y phases=2 Linecode=1P_OH_AL_2/0_Rucina_0_416_0_2_2_2_2_2_2_2_2_2_2_2_2_2_2_2_2_2_2_2_2_2_2_2_2_2_2_2_2_2

New Line.l(r:p1rdt8lv-p1rlv12084) Units=km Length=0.016519 bus1=p1rdt8lv.1.2 bus2=p1rlv12084.1.2 switch=n enabled=y phases=2 Linecode=1P_OH_AL_2/0_Rucina_0_416_0_2_2_2_2_2_2_2_2_2_2_2_2_2_2_2_2_2_2_2_2_2_2_2_2_2_2_2_2_2

New Line.l(r:p1rdt14lv-p1rlv15) Units=km Length=0.0610979 bus1=p1rdt14lv.1.2 bus2=p1rlv15.1.2 switch=n enabled=y phases=2 Linecode=1P_OH_AL_4/0_Zuzara_0_416_0_2_2_2_2_2_2_2_2_2_2_2_2_2_2_2_2_2_2_2_2_2_2_2_2_2_2_2_2_2

New Line.l(r:p1rdt15lv-p1rlv16) Units=km Length=0.03980600000000001 bus1=p1rdt15lv.1.2 bus2=p1rlv16.1.2 switch=n enabled=y phases=2 Linecode=1P_OH_AL_4/0_Zuzara_0_416_0_2_2_2_2_2_2_2_2_2_2_2_2_2_2_2_2_2_2_2_2_2_2_2_2_2_2_2_2_2

New Line.l(r:p1rdt15lv-p1rlv7223) Units=km Length=0.03980600000000001 bus1=p1rdt15lv.1.2 bus2=p1rlv7223.1.2 switch=n enabled=y phases=2 Linecode=1P_OH_AL_4/0_Zuzara_0_416_0_2_2_2_2_2_2_2_2_2_2_2_2_2_2_2_2_2_2_2_2_2_2_2_2_2_2_2_2_2

New Line.l(r:p1rdt126lv-p1rlv130) Units=km Length=0.0916877 bus1=p1rdt126lv.1.2 bus2=p1rlv130.1.2 switch=n enabled=y phases=2 Linecode=1P_OH_AL_4/0_Zuzara_0_416_0_2_2_2_2_2_2_2_2_2_2_2_2_2_2_2_2_2_2_2_2_2_2_2_2_2_2_2_2_2

New Line.l(r:p1rdt132lv-p1rlv136) Units=km Length=0.0219712 bus1=p1rdt132lv.1.2 bus2=p1rlv136.1.2 switch=n enabled=y phases=2 Linecode=1P_OH_AL_2/0_Rucina_0_416_0_2_2_2_2_2_2_2_2_2_2_2_2_2_2_2_2_2_2_2_2_2_2_2_2_2_2_2_2_2

New Line.l(r:p1rdt132lv-p1rlv8547) Units=km Length=0.041722 bus1=p1rdt132lv.1.2 bus2=p1rlv8547.1.2 switch=n enabled=y phases=2 Linecode=1P_OH_AL_4/0_Zuzara_0_416_0_2_2_2_2_2_2_2_2_2_2_2_2_2_2_2_2_2_2_2_2_2_2_2_2_2_2_2_2_2

New Line.l(r:p1rdt261lv-p1rlv268) Units=km Length=0.0596626 bus1=p1rdt261lv.1.2 bus2=p1rlv268.1.2 switch=n enabled=y phases=2 Linecode=1P_OH_AL_4/0_Zuzara_0_416_0_2_2_2_2_2_2_2_2_2_2_2_2_2_2_2_2_2_2_2_2_2_2_2_2_2_2_2_2_2

New Line.l(r:p1rdt262lv-p1rlv269) Units=km Length=0.0281054 bus1=p1rdt262lv.1.2 bus2=p1rlv269.1.2 switch=n enabled=y phases=2 Linecode=1P_OH_AL_4/0_Zuzara_0_416_0_2_2_2_2_2_2_2_2_2_2_2_2_2_2_2_2_2_2_2_2_2_2_2_2_2_2_2_2_2

New Line.l(r:p1rdt262lv-p1rlv5783) Units=km Length=0.133412 bus1=p1rdt262lv.1.2 bus2=p1rlv5783.1.2 switch=n enabled=y phases=2 Linecode=1P_OH_AL_4/0_Zuzara_0_416_0_2_2_2_2_2_2_2_2_2_2_2_2_2_2_2_2_2_2_2_2_2_2_2_2_2_2_2_2_2

New Line.l(r:p1rdt263lv-p1rlv270) Units=km Length=0.0908565 bus1=p1rdt263lv.1.2 bus2=p1rlv270.1.2 switch=n enabled=y phases=2 Linecode=1P_OH_AL_4/0_Zuzara_0_416_0_2_2_2_2_2_2_2_2_2_2_2_2_2_2_2_2_2_2_2_2_2_2_2_2_2_2_2_2_2

New Line.l(r:p1rdt264lv-p1rlv271) Units=km Length=0.0418697 bus1=p1rdt264lv.1.2 bus2=p1rlv271.1.2 switch=n enabled=y phases=2 Linecode=1P_OH_AL_4/0_Zuzara_0_416_0_2_2_2_2_2_2_2_2_2_2_2_2_2_2_2_2_2_2_2_2_2_2_2_2_2_2_2_2_2

New Line.l(r:p1rdt384lv-p1rlv393)_s0 Units=km Length=0.0456816 bus1=p1rdt384lv.1.2 bus2=p1rdt384lv-p1rlv393x.1.2 switch=n enabled=y phases=2 Linecode=1P_OH_AL_4/0_Zuzara_0_416_0_2_2_2_2_2_2_2_2_2_2_2_2_2_2_2_2_2_2_2_2_2_2_2_2_2_2_2_2_2

New Line.l(r:p1rdt384lv-p1rlv393)_s1 Units=km Length=0.026424 bus1=p1rdt384lv-p1rlv393x.1.2 bus2=p1rlv393.1.2 switch=n enabled=y phases=2 Linecode=1P_OH_AL_2/0_Rucina_0_416_0_2_2_2_2_2_2_2_2_2_2_2_2_2_2_2_2_2_2_2_2_2_2_2_2_2_2_2_2_2

New Line.l(r:p1rdt384lv-p1rlv3079) Units=km Length=0.0703317 bus1=p1rdt384lv.1.2 bus2=p1rlv3079.1.2 switch=n enabled=y phases=2 Linecode=1P_OH_AL_4/0_Zuzara_0_416_0_2_2_2_2_2_2_2_2_2_2_2_2_2_2_2_2_2_2_2_2_2_2_2_2_2_2_2_2_2

New Line.l(r:p1rdt387lv-p1rlv396) Units=km Length=0.0258207 bus1=p1rdt387lv.1.2 bus2=p1rlv396.1.2 switch=n enabled=y phases=2 Linecode=1P_OH_AL_2/0_Rucina_0_416_0_2_2_2_2_2_2_2_2_2_2_2_2_2_2_2_2_2_2_2_2_2_2_2_2_2_2_2_2_2

New Line.l(r:p1rdt388lv-p1rlv397) Units=km Length=0.0753149 bus1=p1rdt388lv.1.2 bus2=p1rlv397.1.2 switch=n enabled=y phases=2 Linecode=1P_OH_AL_4/0_Zuzara_0_416_0_2_2_2_2_2_2_2_2_2_2_2_2_2_2_2_2_2_2_2_2_2_2_2_2_2_2_2_2_2

New Line.l(r:p1rdt388lv-p1rlv3082) Units=km Length=0.06932540000000001 bus1=p1rdt388lv.1.2 bus2=p1rlv3082.1.2 switch=n enabled=y phases=2 Linecode=1P_OH_AL_4/0_Zuzara_0_416_0_2_2_2_2_2_2_2_2_2_2_2_2_2_2_2_2_2_2_2_2_2_2_2_2_2_2_2_2_2

New Line.l(r:p1rdt388lv-p1rlv8274) Units=km Length=0.0750902 bus1=p1rdt388lv.1.2 bus2=p1rlv8274.1.2 switch=n enabled=y phases=2 Linecode=1P_OH_AL_4/0_Zuzara_0_416_0_2_2_2_2_2_2_2_2_2_2_2_2_2_2_2_2_2_2_2_2_2_2_2_2_2_2_2_2_2

New Line.l(r:p1rdt389lv-p1rlv398) Units=km Length=0.0409261 bus1=p1rdt389lv.1.2 bus2=p1rlv398.1.2 switch=n enabled=y phases=2 Linecode=1P_OH_AL_4/0_Zuzara_0_416_0_2_2_2_2_2_2_2_2_2_2_2_2_2_2_2_2_2_2_2_2_2_2_2_2_2_2_2_2_2

New Line.l(r:p1rdt390lv-p1rlv399) Units=km Length=0.08220360000000002 bus1=p1rdt390lv.1.2 bus2=p1rlv399.1.2 switch=n enabled=y phases=2 Linecode=1P_OH_AL_4/0_Zuzara_0_416_0_2_2_2_2_2_2_2_2_2_2_2_2_2_2_2_2_2_2_2_2_2_2_2_2_2_2_2_2_2

New Line.l(r:p1rdt391lv-p1rlv400) Units=km Length=0.115258 bus1=p1rdt391lv.1.2 bus2=p1rlv400.1.2 switch=n enabled=y phases=2 Linecode=1P_OH_AL_4/0_Zuzara_0_416_0_2_2_2_2_2_2_2_2_2_2_2_2_2_2_2_2_2_2_2_2_2_2_2_2_2_2_2_2_2

New Line.l(r:p1rdt391lv-p1rlv9601) Units=km Length=0.0793626 bus1=p1rdt391lv.1.2 bus2=p1rlv9601.1.2 switch=n enabled=y phases=2 Linecode=1P_OH_AL_4/0_Zuzara_0_416_0_2_2_2_2_2_2_2_2_2_2_2_2_2_2_2_2_2_2_2_2_2_2_2_2_2_2_2_2_2

New Line.l(r:p1rdt511lv-p1rlv524) Units=km Length=0.00426433 bus1=p1rdt511lv.1.2 bus2=p1rlv524.1.2 switch=n enabled=y phases=2 Linecode=1P_OH_AL_2/0_Rucina_0_416_0_2_2_2_2_2_2_2_2_2_2_2_2_2_2_2_2_2_2_2_2_2_2_2_2_2_2_2_2_2

New Line.l(r:p1rdt514lv-p1rlv527) Units=km Length=0.0757644 bus1=p1rdt514lv.1.2 bus2=p1rlv527.1.2 switch=n enabled=y phases=2 Linecode=1P_OH_AL_4/0_Zuzara_0_416_0_2_2_2_2_2_2_2_2_2_2_2_2_2_2_2_2_2_2_2_2_2_2_2_2_2_2_2_2_2

New Line.l(r:p1rdt514lv-p1rlv4730) Units=km Length=0.0685452 bus1=p1rdt514lv.1.2 bus2=p1rlv4730.1.2 switch=n enabled=y phases=2 Linecode=1P_OH_AL_4/0_Zuzara_0_416_0_2_2_2_2_2_2_2_2_2_2_2_2_2_2_2_2_2_2_2_2_2_2_2_2_2_2_2_2_2

New Line.l(r:p1rdt515lv-p1rlv528) Units=km Length=0.0618457 bus1=p1rdt515lv.1.2 bus2=p1rlv528.1.2 switch=n enabled=y phases=2 Linecode=1P_OH_AL_4/0_Zuzara_0_416_0_2_2_2_2_2_2_2_2_2_2_2_2_2_2_2_2_2_2_2_2_2_2_2_2_2_2_2_2_2

New Line.l(r:p1rdm1211-p1rlv13777) Units=km Length=0.060172500000000004 bus1=p1rdm1211.1.2 bus2=p1rlv13777.1.2 switch=n enabled=y phases=2 Linecode=1P_OH_AL_4/0_Zuzara_0_416_0_2_2_2_2_2_2_2_2_2_2_2_2_2_2_2_2_2_2_2_2_2_2_2_2_2_2_2_2_2

New Line.l(r:p1rdm1211-p1rdt515lv) Units=km Length=0.00923598 bus1=p1rdt515lv.1.2 bus2=p1rdm1211.1.2 switch=n enabled=y phases=2 Linecode=1P_OH_AL_2/0_Rucina_0_416_0_2_2_2_2_2_2_2_2_2_2_2_2_2_2_2_2_2_2_2_2_2_2_2_2_2_2_2_2_2

New Line.l(r:p1rdt521lv-p1rlv534) Units=km Length=0.05253050000000001 bus1=p1rdt521lv.1.2 bus2=p1rlv534.1.2 switch=n enabled=y phases=2 Linecode=1P_OH_AL_4/0_Zuzara_0_416_0_2_2_2_2_2_2_2_2_2_2_2_2_2_2_2_2_2_2_2_2_2_2_2_2_2_2_2_2_2

New Line.l(r:p1rdt521lv-p1rlv2029) Units=km Length=0.0419054 bus1=p1rdt521lv.1.2 bus2=p1rlv2029.1.2 switch=n enabled=y phases=2 Linecode=1P_OH_AL_4/0_Zuzara_0_416_0_2_2_2_2_2_2_2_2_2_2_2_2_2_2_2_2_2_2_2_2_2_2_2_2_2_2_2_2_2

New Line.l(r:p1rdt521lv-p1rlv8282) Units=km Length=0.060388 bus1=p1rdt521lv.1.2 bus2=p1rlv8282.1.2 switch=n enabled=y phases=2 Linecode=1P_OH_AL_4/0_Zuzara_0_416_0_2_2_2_2_2_2_2_2_2_2_2_2_2_2_2_2_2_2_2_2_2_2_2_2_2_2_2_2_2

New Line.l(r:p1rdt789lv-p1rlv824) Units=km Length=0.0203555 bus1=p1rdt789lv.1.2 bus2=p1rlv824.1.2 switch=n enabled=y phases=2 Linecode=1P_OH_AL_2/0_Rucina_0_416_0_2_2_2_2_2_2_2_2_2_2_2_2_2_2_2_2_2_2_2_2_2_2_2_2_2_2_2_2_2

New Line.l(r:p1rdt790lv-p1rlv825) Units=km Length=0.021281100000000004 bus1=p1rdt790lv.1.2 bus2=p1rlv825.1.2 switch=n enabled=y phases=2 Linecode=1P_OH_AL_2/0_Rucina_0_416_0_2_2_2_2_2_2_2_2_2_2_2_2_2_2_2_2_2_2_2_2_2_2_2_2_2_2_2_2_2

New Line.l(r:p1rdt791lv-p1rlv826) Units=km Length=0.0182658 bus1=p1rdt791lv.1.2 bus2=p1rlv826.1.2 switch=n enabled=y phases=2 Linecode=1P_OH_AL_2/0_Rucina_0_416_0_2_2_2_2_2_2_2_2_2_2_2_2_2_2_2_2_2_2_2_2_2_2_2_2_2_2_2_2_2

New Line.l(r:p1rdt791lv-p1rlv9596) Units=km Length=0.0182658 bus1=p1rdt791lv.1.2 bus2=p1rlv9596.1.2 switch=n enabled=y phases=2 Linecode=1P_OH_AL_2/0_Rucina_0_416_0_2_2_2_2_2_2_2_2_2_2_2_2_2_2_2_2_2_2_2_2_2_2_2_2_2_2_2_2_2

New Line.l(r:p1rdt793lv-p1rlv828) Units=km Length=0.0777463 bus1=p1rdt793lv.1.2 bus2=p1rlv828.1.2 switch=n enabled=y phases=2 Linecode=1P_OH_AL_4/0_Zuzara_0_416_0_2_2_2_2_2_2_2_2_2_2_2_2_2_2_2_2_2_2_2_2_2_2_2_2_2_2_2_2_2

New Line.l(r:p1rdt793lv-p1rlv5382) Units=km Length=0.0513792 bus1=p1rdt793lv.1.2 bus2=p1rlv5382.1.2 switch=n enabled=y phases=2 Linecode=1P_OH_AL_4/0_Zuzara_0_416_0_2_2_2_2_2_2_2_2_2_2_2_2_2_2_2_2_2_2_2_2_2_2_2_2_2_2_2_2_2

New Line.l(r:p1rdm1807-p1rlv11515) Units=km Length=0.0477269 bus1=p1rdm1807.1.2 bus2=p1rlv11515.1.2 switch=n enabled=y phases=2 Linecode=1P_OH_AL_4/0_Zuzara_0_416_0_2_2_2_2_2_2_2_2_2_2_2_2_2_2_2_2_2_2_2_2_2_2_2_2_2_2_2_2_2

New Line.l(r:p1rdm1807-p1rdt793lv) Units=km Length=0.0181794 bus1=p1rdt793lv.1.2 bus2=p1rdm1807.1.2 switch=n enabled=y phases=2 Linecode=1P_OH_AL_2/0_Rucina_0_416_0_2_2_2_2_2_2_2_2_2_2_2_2_2_2_2_2_2_2_2_2_2_2_2_2_2_2_2_2_2

New Line.l(r:p1rdt794lv-p1rlv829) Units=km Length=0.078792 bus1=p1rdt794lv.1.2 bus2=p1rlv829.1.2 switch=n enabled=y phases=2 Linecode=1P_OH_AL_4/0_Zuzara_0_416_0_2_2_2_2_2_2_2_2_2_2_2_2_2_2_2_2_2_2_2_2_2_2_2_2_2_2_2_2_2

New Line.l(r:p1rdm1809-p1rlv10146) Units=km Length=0.0346151 bus1=p1rdm1809.1.2 bus2=p1rlv10146.1.2 switch=n enabled=y phases=2 Linecode=1P_OH_AL_4/0_Zuzara_0_416_0_2_2_2_2_2_2_2_2_2_2_2_2_2_2_2_2_2_2_2_2_2_2_2_2_2_2_2_2_2

New Line.l(r:p1rdm1809-p1rdt794lv) Units=km Length=0.0195417 bus1=p1rdt794lv.1.2 bus2=p1rdm1809.1.2 switch=n enabled=y phases=2 Linecode=1P_OH_AL_2/0_Rucina_0_416_0_2_2_2_2_2_2_2_2_2_2_2_2_2_2_2_2_2_2_2_2_2_2_2_2_2_2_2_2_2

New Line.l(r:p1rdm1810-p1rlv830) Units=km Length=0.0786661 bus1=p1rdm1810.1.2 bus2=p1rlv830.1.2 switch=n enabled=y phases=2 Linecode=1P_OH_AL_4/0_Zuzara_0_416_0_2_2_2_2_2_2_2_2_2_2_2_2_2_2_2_2_2_2_2_2_2_2_2_2_2_2_2_2_2

New Line.l(r:p1rdm1810-p1rdt795lv) Units=km Length=0.019693 bus1=p1rdt795lv.1.2 bus2=p1rdm1810.1.2 switch=n enabled=y phases=2 Linecode=1P_OH_AL_2/0_Rucina_0_416_0_2_2_2_2_2_2_2_2_2_2_2_2_2_2_2_2_2_2_2_2_2_2_2_2_2_2_2_2_2

New Line.l(r:p1rdm1811-p1rlv11811) Units=km Length=0.109416 bus1=p1rdm1811.1.2 bus2=p1rlv11811.1.2 switch=n enabled=y phases=2 Linecode=1P_OH_AL_4/0_Zuzara_0_416_0_2_2_2_2_2_2_2_2_2_2_2_2_2_2_2_2_2_2_2_2_2_2_2_2_2_2_2_2_2

New Line.l(r:p1rdm1811-p1rdt795lv) Units=km Length=0.0197017 bus1=p1rdt795lv.1.2 bus2=p1rdm1811.1.2 switch=n enabled=y phases=2 Linecode=1P_OH_AL_2/0_Rucina_0_416_0_2_2_2_2_2_2_2_2_2_2_2_2_2_2_2_2_2_2_2_2_2_2_2_2_2_2_2_2_2

New Line.l(r:p1rdt911lv-p1rlv957) Units=km Length=0.033556 bus1=p1rdt911lv.1.2 bus2=p1rlv957.1.2 switch=n enabled=y phases=2 Linecode=1P_OH_AL_4/0_Zuzara_0_416_0_2_2_2_2_2_2_2_2_2_2_2_2_2_2_2_2_2_2_2_2_2_2_2_2_2_2_2_2_2

New Line.l(r:p1rdt913lv-p1rlv1084) Units=km Length=0.0565853 bus1=p1rdt913lv.1.2 bus2=p1rlv1084.1.2 switch=n enabled=y phases=2 Linecode=1P_OH_AL_4/0_Zuzara_0_416_0_2_2_2_2_2_2_2_2_2_2_2_2_2_2_2_2_2_2_2_2_2_2_2_2_2_2_2_2_2

New Line.l(r:p1rdm2071-p1rlv959) Units=km Length=0.0444653 bus1=p1rdm2071.1.2 bus2=p1rlv959.1.2 switch=n enabled=y phases=2 Linecode=1P_OH_AL_4/0_Zuzara_0_416_0_2_2_2_2_2_2_2_2_2_2_2_2_2_2_2_2_2_2_2_2_2_2_2_2_2_2_2_2_2

New Line.l(r:p1rdm2071-p1rdt913lv) Units=km Length=0.0115365 bus1=p1rdt913lv.1.2 bus2=p1rdm2071.1.2 switch=n enabled=y phases=2 Linecode=1P_OH_AL_2/0_Rucina_0_416_0_2_2_2_2_2_2_2_2_2_2_2_2_2_2_2_2_2_2_2_2_2_2_2_2_2_2_2_2_2

New Line.l(r:p1rdt921lv-p1rlv7500) Units=km Length=0.0265193 bus1=p1rdt921lv.1.2 bus2=p1rlv7500.1.2 switch=n enabled=y phases=2 Linecode=1P_OH_AL_2/0_Rucina_0_416_0_2_2_2_2_2_2_2_2_2_2_2_2_2_2_2_2_2_2_2_2_2_2_2_2_2_2_2_2_2

New Line.l(r:p1rdm2090-p1rlv967) Units=km Length=0.0383723 bus1=p1rdm2090.1.2 bus2=p1rlv967.1.2 switch=n enabled=y phases=2 Linecode=1P_OH_AL_4/0_Zuzara_0_416_0_2_2_2_2_2_2_2_2_2_2_2_2_2_2_2_2_2_2_2_2_2_2_2_2_2_2_2_2_2

New Line.l(r:p1rdm2090-p1rdt921lv) Units=km Length=0.019118 bus1=p1rdt921lv.1.2 bus2=p1rdm2090.1.2 switch=n enabled=y phases=2 Linecode=1P_OH_AL_2/0_Rucina_0_416_0_2_2_2_2_2_2_2_2_2_2_2_2_2_2_2_2_2_2_2_2_2_2_2_2_2_2_2_2_2

New Line.l(r:p1rdt922lv-p1rlv968) Units=km Length=0.0273172 bus1=p1rdt922lv.1.2 bus2=p1rlv968.1.2 switch=n enabled=y phases=2 Linecode=1P_OH_AL_4/0_Zuzara_0_416_0_2_2_2_2_2_2_2_2_2_2_2_2_2_2_2_2_2_2_2_2_2_2_2_2_2_2_2_2_2

New Line.l(r:p1rdt1023lv-p1rlv1080) Units=km Length=0.0109738 bus1=p1rdt1023lv.1.2 bus2=p1rlv1080.1.2 switch=n enabled=y phases=2 Linecode=1P_OH_AL_2/0_Rucina_0_416_0_2_2_2_2_2_2_2_2_2_2_2_2_2_2_2_2_2_2_2_2_2_2_2_2_2_2_2_2_2

New Line.l(r:p1rdt1023lv-p1rlv13389) Units=km Length=0.0109738 bus1=p1rdt1023lv.1.2 bus2=p1rlv13389.1.2 switch=n enabled=y phases=2 Linecode=1P_OH_AL_2/0_Rucina_0_416_0_2_2_2_2_2_2_2_2_2_2_2_2_2_2_2_2_2_2_2_2_2_2_2_2_2_2_2_2_2

New Line.l(r:p1rdt1025lv-p1rlv1082) Units=km Length=0.00821067 bus1=p1rdt1025lv.1.2 bus2=p1rlv1082.1.2 switch=n enabled=y phases=2 Linecode=1P_OH_AL_2/0_Rucina_0_416_0_2_2_2_2_2_2_2_2_2_2_2_2_2_2_2_2_2_2_2_2_2_2_2_2_2_2_2_2_2

New Line.l(r:p1rdt1025lv-p1rlv4020) Units=km Length=0.00821067 bus1=p1rdt1025lv.1.2 bus2=p1rlv4020.1.2 switch=n enabled=y phases=2 Linecode=1P_OH_AL_2/0_Rucina_0_416_0_2_2_2_2_2_2_2_2_2_2_2_2_2_2_2_2_2_2_2_2_2_2_2_2_2_2_2_2_2

New Line.l(r:p1rdt1026lv-p1rlv1083) Units=km Length=0.0208458 bus1=p1rdt1026lv.1.2 bus2=p1rlv1083.1.2 switch=n enabled=y phases=2 Linecode=1P_OH_AL_2/0_Rucina_0_416_0_2_2_2_2_2_2_2_2_2_2_2_2_2_2_2_2_2_2_2_2_2_2_2_2_2_2_2_2_2

New Line.l(r:p1rdt1031lv-p1rlv5526) Units=km Length=0.012324200000000002 bus1=p1rdt1031lv.1.2 bus2=p1rlv5526.1.2 switch=n enabled=y phases=2 Linecode=1P_OH_AL_2/0_Rucina_0_416_0_2_2_2_2_2_2_2_2_2_2_2_2_2_2_2_2_2_2_2_2_2_2_2_2_2_2_2_2_2

New Line.l(r:p1rdm2314-p1rlv1089) Units=km Length=0.0113556 bus1=p1rdm2314.1.2 bus2=p1rlv1089.1.2 switch=n enabled=y phases=2 Linecode=1P_OH_AL_2/0_Rucina_0_416_0_2_2_2_2_2_2_2_2_2_2_2_2_2_2_2_2_2_2_2_2_2_2_2_2_2_2_2_2_2

New Line.l(r:p1rdm2314-p1rdt1031lv) Units=km Length=0.0104572 bus1=p1rdt1031lv.1.2 bus2=p1rdm2314.1.2 switch=n enabled=y phases=2 Linecode=1P_OH_AL_2/0_Rucina_0_416_0_2_2_2_2_2_2_2_2_2_2_2_2_2_2_2_2_2_2_2_2_2_2_2_2_2_2_2_2_2

New Line.l(r:p1rdt1032lv-p1rlv1090) Units=km Length=0.0393906 bus1=p1rdt1032lv.1.2 bus2=p1rlv1090.1.2 switch=n enabled=y phases=2 Linecode=1P_OH_AL_4/0_Zuzara_0_416_0_2_2_2_2_2_2_2_2_2_2_2_2_2_2_2_2_2_2_2_2_2_2_2_2_2_2_2_2_2

New Line.l(r:p1rdt1032lv-p1rlv11817) Units=km Length=0.0393906 bus1=p1rdt1032lv.1.2 bus2=p1rlv11817.1.2 switch=n enabled=y phases=2 Linecode=1P_OH_AL_4/0_Zuzara_0_416_0_2_2_2_2_2_2_2_2_2_2_2_2_2_2_2_2_2_2_2_2_2_2_2_2_2_2_2_2_2

New Line.l(r:p1rdt1143lv-p1rlv1209) Units=km Length=0.0608083 bus1=p1rdt1143lv.1.2 bus2=p1rlv1209.1.2 switch=n enabled=y phases=2 Linecode=1P_OH_AL_4/0_Zuzara_0_416_0_2_2_2_2_2_2_2_2_2_2_2_2_2_2_2_2_2_2_2_2_2_2_2_2_2_2_2_2_2

New Line.l(r:p1rdt1144lv-p1rlv1210) Units=km Length=0.0775397 bus1=p1rdt1144lv.1.2 bus2=p1rlv1210.1.2 switch=n enabled=y phases=2 Linecode=1P_OH_AL_4/0_Zuzara_0_416_0_2_2_2_2_2_2_2_2_2_2_2_2_2_2_2_2_2_2_2_2_2_2_2_2_2_2_2_2_2

New Line.l(r:p1rdt1144lv-p1rlv11247) Units=km Length=0.111399 bus1=p1rdt1144lv.1.2 bus2=p1rlv11247.1.2 switch=n enabled=y phases=2 Linecode=1P_OH_AL_4/0_Zuzara_0_416_0_2_2_2_2_2_2_2_2_2_2_2_2_2_2_2_2_2_2_2_2_2_2_2_2_2_2_2_2_2

New Line.l(r:p1rdt1145lv-p1rlv1211) Units=km Length=0.001 bus1=p1rdt1145lv.1.2 bus2=p1rlv1211.1.2 switch=n enabled=y phases=2 Linecode=1P_OH_AL_4_Periwinkle_0_416_0_2_2_2_2_2_2_2_2_2_2_2_2_2_2_2_2_2_2_2_2_2_2_2_2_2_2_2_2_2

New Line.l(r:p1rdt1146lv-p1rlv1212) Units=km Length=0.0508591 bus1=p1rdt1146lv.1.2 bus2=p1rlv1212.1.2 switch=n enabled=y phases=2 Linecode=1P_OH_AL_4/0_Zuzara_0_416_0_2_2_2_2_2_2_2_2_2_2_2_2_2_2_2_2_2_2_2_2_2_2_2_2_2_2_2_2_2

New Line.l(r:p1rdm2551-p1rlv6924) Units=km Length=0.05763410000000001 bus1=p1rdm2551.1.2 bus2=p1rlv6924.1.2 switch=n enabled=y phases=2 Linecode=1P_OH_AL_4/0_Zuzara_0_416_0_2_2_2_2_2_2_2_2_2_2_2_2_2_2_2_2_2_2_2_2_2_2_2_2_2_2_2_2_2

New Line.l(r:p1rdm2551-p1rdt1146lv) Units=km Length=0.0193227 bus1=p1rdt1146lv.1.2 bus2=p1rdm2551.1.2 switch=n enabled=y phases=2 Linecode=1P_OH_AL_2/0_Rucina_0_416_0_2_2_2_2_2_2_2_2_2_2_2_2_2_2_2_2_2_2_2_2_2_2_2_2_2_2_2_2_2

New Line.l(r:p1rdt1258lv-p1rlv7486) Units=km Length=0.0574346 bus1=p1rdt1258lv.1.2 bus2=p1rlv7486.1.2 switch=n enabled=y phases=2 Linecode=1P_OH_AL_4/0_Zuzara_0_416_0_2_2_2_2_2_2_2_2_2_2_2_2_2_2_2_2_2_2_2_2_2_2_2_2_2_2_2_2_2

New Line.l(r:p1rdm2796-p1rlv1339) Units=km Length=0.0317167 bus1=p1rdm2796.1.2 bus2=p1rlv1339.1.2 switch=n enabled=y phases=2 Linecode=1P_OH_AL_4/0_Zuzara_0_416_0_2_2_2_2_2_2_2_2_2_2_2_2_2_2_2_2_2_2_2_2_2_2_2_2_2_2_2_2_2

New Line.l(r:p1rdm2796-p1rlv10416) Units=km Length=0.0654314 bus1=p1rdm2796.1.2 bus2=p1rlv10416.1.2 switch=n enabled=y phases=2 Linecode=1P_OH_AL_4/0_Zuzara_0_416_0_2_2_2_2_2_2_2_2_2_2_2_2_2_2_2_2_2_2_2_2_2_2_2_2_2_2_2_2_2

New Line.l(r:p1rdm2796-p1rdt1258lv) Units=km Length=0.0184333 bus1=p1rdt1258lv.1.2 bus2=p1rdm2796.1.2 switch=n enabled=y phases=2 Linecode=1P_OH_AL_2/0_Rucina_0_416_0_2_2_2_2_2_2_2_2_2_2_2_2_2_2_2_2_2_2_2_2_2_2_2_2_2_2_2_2_2

New Line.l(r:p1rdm2797-p1rlv5125) Units=km Length=0.0529617 bus1=p1rdm2797.1.2 bus2=p1rlv5125.1.2 switch=n enabled=y phases=2 Linecode=1P_OH_AL_4/0_Zuzara_0_416_0_2_2_2_2_2_2_2_2_2_2_2_2_2_2_2_2_2_2_2_2_2_2_2_2_2_2_2_2_2

New Line.l(r:p1rdm2797-p1rdt1258lv) Units=km Length=0.0184333 bus1=p1rdt1258lv.1.2 bus2=p1rdm2797.1.2 switch=n enabled=y phases=2 Linecode=1P_OH_AL_2/0_Rucina_0_416_0_2_2_2_2_2_2_2_2_2_2_2_2_2_2_2_2_2_2_2_2_2_2_2_2_2_2_2_2_2

New Line.l(r:p1rdt1261lv-p1rlv1342) Units=km Length=0.001 bus1=p1rdt1261lv.1.2 bus2=p1rlv1342.1.2 switch=n enabled=y phases=2 Linecode=1P_OH_AL_4_Periwinkle_0_416_0_2_2_2_2_2_2_2_2_2_2_2_2_2_2_2_2_2_2_2_2_2_2_2_2_2_2_2_2_2

New Line.l(r:p1rdt1262lv-p1rlv1343) Units=km Length=0.0343381 bus1=p1rdt1262lv.1.2 bus2=p1rlv1343.1.2 switch=n enabled=y phases=2 Linecode=1P_OH_AL_4/0_Zuzara_0_416_0_2_2_2_2_2_2_2_2_2_2_2_2_2_2_2_2_2_2_2_2_2_2_2_2_2_2_2_2_2

New Line.l(r:p1rdt1263lv-p1rlv3206) Units=km Length=0.0362211 bus1=p1rdt1263lv.1.2 bus2=p1rlv3206.1.2 switch=n enabled=y phases=2 Linecode=1P_OH_AL_4/0_Zuzara_0_416_0_2_2_2_2_2_2_2_2_2_2_2_2_2_2_2_2_2_2_2_2_2_2_2_2_2_2_2_2_2

New Line.l(r:p1rdm2806-p1rlv1344) Units=km Length=0.0441351 bus1=p1rdm2806.1.2 bus2=p1rlv1344.1.2 switch=n enabled=y phases=2 Linecode=1P_OH_AL_4/0_Zuzara_0_416_0_2_2_2_2_2_2_2_2_2_2_2_2_2_2_2_2_2_2_2_2_2_2_2_2_2_2_2_2_2

New Line.l(r:p1rdm2806-p1rdt1263lv) Units=km Length=0.0182221 bus1=p1rdt1263lv.1.2 bus2=p1rdm2806.1.2 switch=n enabled=y phases=2 Linecode=1P_OH_AL_2/0_Rucina_0_416_0_2_2_2_2_2_2_2_2_2_2_2_2_2_2_2_2_2_2_2_2_2_2_2_2_2_2_2_2_2

New Line.l(r:p1rdt1387lv-p1rlv1489) Units=km Length=0.001 bus1=p1rdt1387lv.1.2 bus2=p1rlv1489.1.2 switch=n enabled=y phases=2 Linecode=1P_OH_AL_4_Periwinkle_0_416_0_2_2_2_2_2_2_2_2_2_2_2_2_2_2_2_2_2_2_2_2_2_2_2_2_2_2_2_2_2

New Line.l(r:p1rdt1388lv-p1rlv1490) Units=km Length=0.001 bus1=p1rdt1388lv.1.2 bus2=p1rlv1490.1.2 switch=n enabled=y phases=2 Linecode=1P_OH_AL_4_Periwinkle_0_416_0_2_2_2_2_2_2_2_2_2_2_2_2_2_2_2_2_2_2_2_2_2_2_2_2_2_2_2_2_2

New Line.l(r:p1rdt1389lv-p1rlv1491) Units=km Length=0.001 bus1=p1rdt1389lv.1.2 bus2=p1rlv1491.1.2 switch=n enabled=y phases=2 Linecode=1P_OH_AL_4_Periwinkle_0_416_0_2_2_2_2_2_2_2_2_2_2_2_2_2_2_2_2_2_2_2_2_2_2_2_2_2_2_2_2_2

New Line.l(r:p1rdt1390lv-p1rlv1492) Units=km Length=0.0582663 bus1=p1rdt1390lv.1.2 bus2=p1rlv1492.1.2 switch=n enabled=y phases=2 Linecode=1P_OH_AL_4/0_Zuzara_0_416_0_2_2_2_2_2_2_2_2_2_2_2_2_2_2_2_2_2_2_2_2_2_2_2_2_2_2_2_2_2

New Line.l(r:p1rdt1391lv-p1rlv1493) Units=km Length=0.0329516 bus1=p1rdt1391lv.1.2 bus2=p1rlv1493.1.2 switch=n enabled=y phases=2 Linecode=1P_OH_AL_4/0_Zuzara_0_416_0_2_2_2_2_2_2_2_2_2_2_2_2_2_2_2_2_2_2_2_2_2_2_2_2_2_2_2_2_2

New Line.l(r:p1rdt1391lv-p1rlv8539) Units=km Length=0.0329516 bus1=p1rdt1391lv.1.2 bus2=p1rlv8539.1.2 switch=n enabled=y phases=2 Linecode=1P_OH_AL_4/0_Zuzara_0_416_0_2_2_2_2_2_2_2_2_2_2_2_2_2_2_2_2_2_2_2_2_2_2_2_2_2_2_2_2_2

New Line.l(r:p1rdt1498lv-p1rlv1617) Units=km Length=0.0129274 bus1=p1rdt1498lv.1.2 bus2=p1rlv1617.1.2 switch=n enabled=y phases=2 Linecode=1P_OH_AL_2/0_Rucina_0_416_0_2_2_2_2_2_2_2_2_2_2_2_2_2_2_2_2_2_2_2_2_2_2_2_2_2_2_2_2_2

New Line.l(r:p1rdt1498lv-p1rlv4437) Units=km Length=0.021557700000000003 bus1=p1rdt1498lv.1.2 bus2=p1rlv4437.1.2 switch=n enabled=y phases=2 Linecode=1P_OH_AL_2/0_Rucina_0_416_0_2_2_2_2_2_2_2_2_2_2_2_2_2_2_2_2_2_2_2_2_2_2_2_2_2_2_2_2_2

New Line.l(r:p1rdt1500lv-p1rlv1619) Units=km Length=0.0670906 bus1=p1rdt1500lv.1.2 bus2=p1rlv1619.1.2 switch=n enabled=y phases=2 Linecode=1P_OH_AL_4/0_Zuzara_0_416_0_2_2_2_2_2_2_2_2_2_2_2_2_2_2_2_2_2_2_2_2_2_2_2_2_2_2_2_2_2

New Line.l(r:p1rdm3299-p1rlv7208) Units=km Length=0.0490729 bus1=p1rdm3299.1.2 bus2=p1rlv7208.1.2 switch=n enabled=y phases=2 Linecode=1P_OH_AL_4/0_Zuzara_0_416_0_2_2_2_2_2_2_2_2_2_2_2_2_2_2_2_2_2_2_2_2_2_2_2_2_2_2_2_2_2

New Line.l(r:p1rdm3299-p1rdt1500lv) Units=km Length=0.0130728 bus1=p1rdt1500lv.1.2 bus2=p1rdm3299.1.2 switch=n enabled=y phases=2 Linecode=1P_OH_AL_2/0_Rucina_0_416_0_2_2_2_2_2_2_2_2_2_2_2_2_2_2_2_2_2_2_2_2_2_2_2_2_2_2_2_2_2

New Line.l(r:p1rdt1501lv-p1rlv1620) Units=km Length=0.0938846 bus1=p1rdt1501lv.1.2 bus2=p1rlv1620.1.2 switch=n enabled=y phases=2 Linecode=1P_OH_AL_4/0_Zuzara_0_416_0_2_2_2_2_2_2_2_2_2_2_2_2_2_2_2_2_2_2_2_2_2_2_2_2_2_2_2_2_2

New Line.l(r:p1rdt1502lv-p1rlv1621) Units=km Length=0.063775 bus1=p1rdt1502lv.1.2 bus2=p1rlv1621.1.2 switch=n enabled=y phases=2 Linecode=1P_OH_AL_4/0_Zuzara_0_416_0_2_2_2_2_2_2_2_2_2_2_2_2_2_2_2_2_2_2_2_2_2_2_2_2_2_2_2_2_2

New Line.l(r:p1rdt1506lv-p1rlv1625) Units=km Length=0.0696288 bus1=p1rdt1506lv.1.2 bus2=p1rlv1625.1.2 switch=n enabled=y phases=2 Linecode=1P_OH_AL_4/0_Zuzara_0_416_0_2_2_2_2_2_2_2_2_2_2_2_2_2_2_2_2_2_2_2_2_2_2_2_2_2_2_2_2_2

New Line.l(r:p1rdt1506lv-p1rlv10979) Units=km Length=0.036547600000000006 bus1=p1rdt1506lv.1.2 bus2=p1rlv10979.1.2 switch=n enabled=y phases=2 Linecode=1P_OH_AL_4/0_Zuzara_0_416_0_2_2_2_2_2_2_2_2_2_2_2_2_2_2_2_2_2_2_2_2_2_2_2_2_2_2_2_2_2

New Line.l(r:p1rdt1594lv-p1rlv10689) Units=km Length=0.0490129 bus1=p1rdt1594lv.1.2 bus2=p1rlv10689.1.2 switch=n enabled=y phases=2 Linecode=1P_OH_AL_4/0_Zuzara_0_416_0_2_2_2_2_2_2_2_2_2_2_2_2_2_2_2_2_2_2_2_2_2_2_2_2_2_2_2_2_2

New Line.l(r:p1rdm3507-p1rlv1732) Units=km Length=0.0329675 bus1=p1rdm3507.1.2 bus2=p1rlv1732.1.2 switch=n enabled=y phases=2 Linecode=1P_OH_AL_4/0_Zuzara_0_416_0_2_2_2_2_2_2_2_2_2_2_2_2_2_2_2_2_2_2_2_2_2_2_2_2_2_2_2_2_2

New Line.l(r:p1rdm3507-p1rdt1594lv) Units=km Length=0.0183624 bus1=p1rdt1594lv.1.2 bus2=p1rdm3507.1.2 switch=n enabled=y phases=2 Linecode=1P_OH_AL_2/0_Rucina_0_416_0_2_2_2_2_2_2_2_2_2_2_2_2_2_2_2_2_2_2_2_2_2_2_2_2_2_2_2_2_2

New Line.l(r:p1rdt1595lv-p1rlv1733) Units=km Length=0.0373824 bus1=p1rdt1595lv.1.2 bus2=p1rlv1733.1.2 switch=n enabled=y phases=2 Linecode=1P_OH_AL_4/0_Zuzara_0_416_0_2_2_2_2_2_2_2_2_2_2_2_2_2_2_2_2_2_2_2_2_2_2_2_2_2_2_2_2_2

New Line.l(r:p1rdt1595lv-p1rlv2295) Units=km Length=0.048844000000000005 bus1=p1rdt1595lv.1.2 bus2=p1rlv2295.1.2 switch=n enabled=y phases=2 Linecode=1P_OH_AL_4/0_Zuzara_0_416_0_2_2_2_2_2_2_2_2_2_2_2_2_2_2_2_2_2_2_2_2_2_2_2_2_2_2_2_2_2

New Line.l(r:p1rdm3510-p1rlv1735) Units=km Length=0.060962600000000006 bus1=p1rdm3510.1.2 bus2=p1rlv1735.1.2 switch=n enabled=y phases=2 Linecode=1P_OH_AL_4/0_Zuzara_0_416_0_2_2_2_2_2_2_2_2_2_2_2_2_2_2_2_2_2_2_2_2_2_2_2_2_2_2_2_2_2

New Line.l(r:p1rdm3510-p1rdt1595lv) Units=km Length=0.03701 bus1=p1rdt1595lv.1.2 bus2=p1rdm3510.1.2 switch=n enabled=y phases=2 Linecode=1P_OH_AL_4/0_Zuzara_0_416_0_2_2_2_2_2_2_2_2_2_2_2_2_2_2_2_2_2_2_2_2_2_2_2_2_2_2_2_2_2

New Line.l(r:p1rdm3512-p1rlv11939) Units=km Length=0.03852160000000001 bus1=p1rdm3512.1.2 bus2=p1rlv11939.1.2 switch=n enabled=y phases=2 Linecode=1P_OH_AL_4/0_Zuzara_0_416_0_2_2_2_2_2_2_2_2_2_2_2_2_2_2_2_2_2_2_2_2_2_2_2_2_2_2_2_2_2

New Line.l(r:p1rdm3512-p1rdt1595lv) Units=km Length=0.0144451 bus1=p1rdt1595lv.1.2 bus2=p1rdm3512.1.2 switch=n enabled=y phases=2 Linecode=1P_OH_AL_2/0_Rucina_0_416_0_2_2_2_2_2_2_2_2_2_2_2_2_2_2_2_2_2_2_2_2_2_2_2_2_2_2_2_2_2

New Line.l(r:p1rdt1596lv-p1rlv9072) Units=km Length=0.0969311 bus1=p1rdt1596lv.1.2 bus2=p1rlv9072.1.2 switch=n enabled=y phases=2 Linecode=1P_OH_AL_4/0_Zuzara_0_416_0_2_2_2_2_2_2_2_2_2_2_2_2_2_2_2_2_2_2_2_2_2_2_2_2_2_2_2_2_2

New Line.l(r:p1rdm3513-p1rlv1734) Units=km Length=0.0292098 bus1=p1rdm3513.1.2 bus2=p1rlv1734.1.2 switch=n enabled=y phases=2 Linecode=1P_OH_AL_4/0_Zuzara_0_416_0_2_2_2_2_2_2_2_2_2_2_2_2_2_2_2_2_2_2_2_2_2_2_2_2_2_2_2_2_2

New Line.l(r:p1rdm3513-p1rlv9735) Units=km Length=0.0653921 bus1=p1rdm3513.1.2 bus2=p1rlv9735.1.2 switch=n enabled=y phases=2 Linecode=1P_OH_AL_4/0_Zuzara_0_416_0_2_2_2_2_2_2_2_2_2_2_2_2_2_2_2_2_2_2_2_2_2_2_2_2_2_2_2_2_2

New Line.l(r:p1rdm3513-p1rdt1596lv) Units=km Length=0.0188814 bus1=p1rdt1596lv.1.2 bus2=p1rdm3513.1.2 switch=n enabled=y phases=2 Linecode=1P_OH_AL_2/0_Rucina_0_416_0_2_2_2_2_2_2_2_2_2_2_2_2_2_2_2_2_2_2_2_2_2_2_2_2_2_2_2_2_2

New Line.l(r:p1rdm3514-p1rlv5248) Units=km Length=0.036672 bus1=p1rdm3514.1.2 bus2=p1rlv5248.1.2 switch=n enabled=y phases=2 Linecode=1P_OH_AL_4/0_Zuzara_0_416_0_2_2_2_2_2_2_2_2_2_2_2_2_2_2_2_2_2_2_2_2_2_2_2_2_2_2_2_2_2

New Line.l(r:p1rdm3514-p1rdt1596lv) Units=km Length=0.0188859 bus1=p1rdt1596lv.1.2 bus2=p1rdm3514.1.2 switch=n enabled=y phases=2 Linecode=1P_OH_AL_2/0_Rucina_0_416_0_2_2_2_2_2_2_2_2_2_2_2_2_2_2_2_2_2_2_2_2_2_2_2_2_2_2_2_2_2

New Line.l(r:p1rdt1598lv-p1rlv1737) Units=km Length=0.0371648 bus1=p1rdt1598lv.1.2 bus2=p1rlv1737.1.2 switch=n enabled=y phases=2 Linecode=1P_OH_AL_4/0_Zuzara_0_416_0_2_2_2_2_2_2_2_2_2_2_2_2_2_2_2_2_2_2_2_2_2_2_2_2_2_2_2_2_2

New Line.l(r:p1rdt1599lv-p1rlv1738) Units=km Length=0.001 bus1=p1rdt1599lv.1.2 bus2=p1rlv1738.1.2 switch=n enabled=y phases=2 Linecode=1P_OH_AL_4_Periwinkle_0_416_0_2_2_2_2_2_2_2_2_2_2_2_2_2_2_2_2_2_2_2_2_2_2_2_2_2_2_2_2_2

New Line.l(r:p1rdt1600lv-p1rlv1739) Units=km Length=0.02423 bus1=p1rdt1600lv.1.2 bus2=p1rlv1739.1.2 switch=n enabled=y phases=2 Linecode=1P_OH_AL_2/0_Rucina_0_416_0_2_2_2_2_2_2_2_2_2_2_2_2_2_2_2_2_2_2_2_2_2_2_2_2_2_2_2_2_2

New Line.l(r:p1rdt1600lv-p1rlv7345) Units=km Length=0.02423 bus1=p1rdt1600lv.1.2 bus2=p1rlv7345.1.2 switch=n enabled=y phases=2 Linecode=1P_OH_AL_2/0_Rucina_0_416_0_2_2_2_2_2_2_2_2_2_2_2_2_2_2_2_2_2_2_2_2_2_2_2_2_2_2_2_2_2

New Line.l(r:p1rdt1601lv-p1rlv8403) Units=km Length=0.020925900000000004 bus1=p1rdt1601lv.1.2 bus2=p1rlv8403.1.2 switch=n enabled=y phases=2 Linecode=1P_OH_AL_2/0_Rucina_0_416_0_2_2_2_2_2_2_2_2_2_2_2_2_2_2_2_2_2_2_2_2_2_2_2_2_2_2_2_2_2

New Line.l(r:p1rdt1601lv-p1rlv11387) Units=km Length=0.0280617 bus1=p1rdt1601lv.1.2 bus2=p1rlv11387.1.2 switch=n enabled=y phases=2 Linecode=1P_OH_AL_4/0_Zuzara_0_416_0_2_2_2_2_2_2_2_2_2_2_2_2_2_2_2_2_2_2_2_2_2_2_2_2_2_2_2_2_2

New Line.l(r:p1rdm3522-p1rlv1740) Units=km Length=0.114337 bus1=p1rdm3522.1.2 bus2=p1rlv1740.1.2 switch=n enabled=y phases=2 Linecode=1P_OH_AL_4/0_Zuzara_0_416_0_2_2_2_2_2_2_2_2_2_2_2_2_2_2_2_2_2_2_2_2_2_2_2_2_2_2_2_2_2

New Line.l(r:p1rdm3522-p1rdt1601lv) Units=km Length=0.0143406 bus1=p1rdt1601lv.1.2 bus2=p1rdm3522.1.2 switch=n enabled=y phases=2 Linecode=1P_OH_AL_2/0_Rucina_0_416_0_2_2_2_2_2_2_2_2_2_2_2_2_2_2_2_2_2_2_2_2_2_2_2_2_2_2_2_2_2

New Line.l(r:p1rdt1602lv-p1rlv1741) Units=km Length=0.0452742 bus1=p1rdt1602lv.1.2 bus2=p1rlv1741.1.2 switch=n enabled=y phases=2 Linecode=1P_OH_AL_4/0_Zuzara_0_416_0_2_2_2_2_2_2_2_2_2_2_2_2_2_2_2_2_2_2_2_2_2_2_2_2_2_2_2_2_2

New Line.l(r:p1rdt1602lv-p1rlv3774) Units=km Length=0.054006200000000004 bus1=p1rdt1602lv.1.2 bus2=p1rlv3774.1.2 switch=n enabled=y phases=2 Linecode=1P_OH_AL_4/0_Zuzara_0_416_0_2_2_2_2_2_2_2_2_2_2_2_2_2_2_2_2_2_2_2_2_2_2_2_2_2_2_2_2_2

New Line.l(r:p1rdt1603lv-p1rlv7764) Units=km Length=0.10265 bus1=p1rdt1603lv.1.2 bus2=p1rlv7764.1.2 switch=n enabled=y phases=2 Linecode=1P_OH_AL_4/0_Zuzara_0_416_0_2_2_2_2_2_2_2_2_2_2_2_2_2_2_2_2_2_2_2_2_2_2_2_2_2_2_2_2_2

New Line.l(r:p1rdt1603lv-p1rlv9075) Units=km Length=0.0173601 bus1=p1rdt1603lv.1.2 bus2=p1rlv9075.1.2 switch=n enabled=y phases=2 Linecode=1P_OH_AL_2/0_Rucina_0_416_0_2_2_2_2_2_2_2_2_2_2_2_2_2_2_2_2_2_2_2_2_2_2_2_2_2_2_2_2_2
