New Line.l(r:p1rdt18lv-p1rlv19) Units=km Length=0.0676676 bus1=p1rdt18lv.1.2 bus2=p1rlv19.1.2 switch=n enabled=y phases=2 Linecode=1P_OH_AL_4/0_Zuzara_0_416_0_2_2_2_2_2_2_2_2_2_2_2_2_2_2_2_2_2_2_2_2_2_2_2_2_2_2_2_2_2

New Line.l(r:p1rdt18lv-p1rlv4161) Units=km Length=0.0676676 bus1=p1rdt18lv.1.2 bus2=p1rlv4161.1.2 switch=n enabled=y phases=2 Linecode=1P_OH_AL_4/0_Zuzara_0_416_0_2_2_2_2_2_2_2_2_2_2_2_2_2_2_2_2_2_2_2_2_2_2_2_2_2_2_2_2_2

New Line.l(r:p1rdt20lv-p1rlv21) Units=km Length=0.044193 bus1=p1rdt20lv.1.2 bus2=p1rlv21.1.2 switch=n enabled=y phases=2 Linecode=1P_OH_AL_4/0_Zuzara_0_416_0_2_2_2_2_2_2_2_2_2_2_2_2_2_2_2_2_2_2_2_2_2_2_2_2_2_2_2_2_2

New Line.l(r:p1rdt20lv-p1rlv8554) Units=km Length=0.044193 bus1=p1rdt20lv.1.2 bus2=p1rlv8554.1.2 switch=n enabled=y phases=2 Linecode=1P_OH_AL_4/0_Zuzara_0_416_0_2_2_2_2_2_2_2_2_2_2_2_2_2_2_2_2_2_2_2_2_2_2_2_2_2_2_2_2_2

New Line.l(r:p1rdt135lv-p1rlv139) Units=km Length=0.001 bus1=p1rdt135lv.1.2 bus2=p1rlv139.1.2 switch=n enabled=y phases=2 Linecode=1P_OH_AL_4_Periwinkle_0_416_0_2_2_2_2_2_2_2_2_2_2_2_2_2_2_2_2_2_2_2_2_2_2_2_2_2_2_2_2_2

New Line.l(r:p1rdt136lv-p1rlv140) Units=km Length=0.0522564 bus1=p1rdt136lv.1.2 bus2=p1rlv140.1.2 switch=n enabled=y phases=2 Linecode=1P_OH_AL_4/0_Zuzara_0_416_0_2_2_2_2_2_2_2_2_2_2_2_2_2_2_2_2_2_2_2_2_2_2_2_2_2_2_2_2_2

New Line.l(r:p1rdt136lv-p1rlv2710) Units=km Length=0.0522564 bus1=p1rdt136lv.1.2 bus2=p1rlv2710.1.2 switch=n enabled=y phases=2 Linecode=1P_OH_AL_4/0_Zuzara_0_416_0_2_2_2_2_2_2_2_2_2_2_2_2_2_2_2_2_2_2_2_2_2_2_2_2_2_2_2_2_2

New Line.l(r:p1rdt278lv-p1rlv286) Units=km Length=0.017300100000000002 bus1=p1rdt278lv.1.2 bus2=p1rlv286.1.2 switch=n enabled=y phases=2 Linecode=1P_OH_AL_2/0_Rucina_0_416_0_2_2_2_2_2_2_2_2_2_2_2_2_2_2_2_2_2_2_2_2_2_2_2_2_2_2_2_2_2

New Line.l(r:p1rdt278lv-p1rlv8962) Units=km Length=0.021952 bus1=p1rdt278lv.1.2 bus2=p1rlv8962.1.2 switch=n enabled=y phases=2 Linecode=1P_OH_AL_2/0_Rucina_0_416_0_2_2_2_2_2_2_2_2_2_2_2_2_2_2_2_2_2_2_2_2_2_2_2_2_2_2_2_2_2

New Line.l(r:p1rdt278lv-p1rlv11397) Units=km Length=0.0214259 bus1=p1rdt278lv.1.2 bus2=p1rlv11397.1.2 switch=n enabled=y phases=2 Linecode=1P_OH_AL_2/0_Rucina_0_416_0_2_2_2_2_2_2_2_2_2_2_2_2_2_2_2_2_2_2_2_2_2_2_2_2_2_2_2_2_2

New Line.l(r:p1rdt278lv-p1rlv13012) Units=km Length=0.0200274 bus1=p1rdt278lv.1.2 bus2=p1rlv13012.1.2 switch=n enabled=y phases=2 Linecode=1P_OH_AL_2/0_Rucina_0_416_0_2_2_2_2_2_2_2_2_2_2_2_2_2_2_2_2_2_2_2_2_2_2_2_2_2_2_2_2_2

New Line.l(r:p1rdt401lv-p1rlv410) Units=km Length=0.001 bus1=p1rdt401lv.1.2 bus2=p1rlv410.1.2 switch=n enabled=y phases=2 Linecode=1P_OH_AL_4_Periwinkle_0_416_0_2_2_2_2_2_2_2_2_2_2_2_2_2_2_2_2_2_2_2_2_2_2_2_2_2_2_2_2_2

New Line.l(r:p1rdt524lv-p1rlv537) Units=km Length=0.0457166 bus1=p1rdt524lv.1.2 bus2=p1rlv537.1.2 switch=n enabled=y phases=2 Linecode=1P_OH_AL_4/0_Zuzara_0_416_0_2_2_2_2_2_2_2_2_2_2_2_2_2_2_2_2_2_2_2_2_2_2_2_2_2_2_2_2_2

New Line.l(r:p1rdt524lv-p1rlv1883) Units=km Length=0.0523644 bus1=p1rdt524lv.1.2 bus2=p1rlv1883.1.2 switch=n enabled=y phases=2 Linecode=1P_OH_AL_4/0_Zuzara_0_416_0_2_2_2_2_2_2_2_2_2_2_2_2_2_2_2_2_2_2_2_2_2_2_2_2_2_2_2_2_2

New Line.l(r:p1rdt524lv-p1rlv7225) Units=km Length=0.0125903 bus1=p1rdt524lv.1.2 bus2=p1rlv7225.1.2 switch=n enabled=y phases=2 Linecode=1P_OH_AL_2/0_Rucina_0_416_0_2_2_2_2_2_2_2_2_2_2_2_2_2_2_2_2_2_2_2_2_2_2_2_2_2_2_2_2_2

New Line.l(r:p1rdt524lv-p1rlv8029) Units=km Length=0.09441840000000001 bus1=p1rdt524lv.1.2 bus2=p1rlv8029.1.2 switch=n enabled=y phases=2 Linecode=1P_OH_AL_4/0_Zuzara_0_416_0_2_2_2_2_2_2_2_2_2_2_2_2_2_2_2_2_2_2_2_2_2_2_2_2_2_2_2_2_2

New Line.l(r:p1rdt525lv-p1rlv538)_s0 Units=km Length=0.05054700000000001 bus1=p1rdt525lv.1.2 bus2=p1rdt525lv-p1rlv538x.1.2 switch=n enabled=y phases=2 Linecode=1P_OH_AL_4/0_Zuzara_0_416_0_2_2_2_2_2_2_2_2_2_2_2_2_2_2_2_2_2_2_2_2_2_2_2_2_2_2_2_2_2

New Line.l(r:p1rdt525lv-p1rlv538)_s1 Units=km Length=0.0316257 bus1=p1rdt525lv-p1rlv538x.1.2 bus2=p1rlv538.1.2 switch=n enabled=y phases=2 Linecode=1P_OH_AL_4/0_Zuzara_0_416_0_2_2_2_2_2_2_2_2_2_2_2_2_2_2_2_2_2_2_2_2_2_2_2_2_2_2_2_2_2

New Line.l(r:p1rdt525lv-p1rlv1354) Units=km Length=0.04249590000000001 bus1=p1rdt525lv.1.2 bus2=p1rlv1354.1.2 switch=n enabled=y phases=2 Linecode=1P_OH_AL_4/0_Zuzara_0_416_0_2_2_2_2_2_2_2_2_2_2_2_2_2_2_2_2_2_2_2_2_2_2_2_2_2_2_2_2_2

New Line.l(r:p1rdt525lv-p1rlv5800)_s0 Units=km Length=0.0664407 bus1=p1rdt525lv.1.2 bus2=p1rdt525lv-p1rlv5800x.1.2 switch=n enabled=y phases=2 Linecode=1P_OH_AL_4/0_Zuzara_0_416_0_2_2_2_2_2_2_2_2_2_2_2_2_2_2_2_2_2_2_2_2_2_2_2_2_2_2_2_2_2

New Line.l(r:p1rdt525lv-p1rlv5800)_s1 Units=km Length=0.0508906 bus1=p1rdt525lv-p1rlv5800x.1.2 bus2=p1rlv5800.1.2 switch=n enabled=y phases=2 Linecode=1P_OH_AL_4/0_Zuzara_0_416_0_2_2_2_2_2_2_2_2_2_2_2_2_2_2_2_2_2_2_2_2_2_2_2_2_2_2_2_2_2

New Line.l(r:p1rdt525lv-p1rlv9915)_s0 Units=km Length=0.076025 bus1=p1rdt525lv.1.2 bus2=p1rdt525lv-p1rlv9915x.1.2 switch=n enabled=y phases=2 Linecode=1P_OH_AL_4/0_Zuzara_0_416_0_2_2_2_2_2_2_2_2_2_2_2_2_2_2_2_2_2_2_2_2_2_2_2_2_2_2_2_2_2

New Line.l(r:p1rdt525lv-p1rlv9915)_s1 Units=km Length=0.0459591 bus1=p1rdt525lv-p1rlv9915x.1.2 bus2=p1rlv9915.1.2 switch=n enabled=y phases=2 Linecode=1P_OH_AL_4/0_Zuzara_0_416_0_2_2_2_2_2_2_2_2_2_2_2_2_2_2_2_2_2_2_2_2_2_2_2_2_2_2_2_2_2

New Line.l(r:p1rdt651lv-p1rlv673) Units=km Length=0.014501 bus1=p1rdt651lv.1.2 bus2=p1rlv673.1.2 switch=n enabled=y phases=2 Linecode=1P_OH_AL_2/0_Rucina_0_416_0_2_2_2_2_2_2_2_2_2_2_2_2_2_2_2_2_2_2_2_2_2_2_2_2_2_2_2_2_2

New Line.l(r:p1rdt651lv-p1rlv12508) Units=km Length=0.014501 bus1=p1rdt651lv.1.2 bus2=p1rlv12508.1.2 switch=n enabled=y phases=2 Linecode=1P_OH_AL_2/0_Rucina_0_416_0_2_2_2_2_2_2_2_2_2_2_2_2_2_2_2_2_2_2_2_2_2_2_2_2_2_2_2_2_2

New Line.l(r:p1rdt653lv-p1rlv675) Units=km Length=0.001 bus1=p1rdt653lv.1.2 bus2=p1rlv675.1.2 switch=n enabled=y phases=2 Linecode=1P_OH_AL_4_Periwinkle_0_416_0_2_2_2_2_2_2_2_2_2_2_2_2_2_2_2_2_2_2_2_2_2_2_2_2_2_2_2_2_2

New Line.l(r:p1rdt805lv-p1rlv840) Units=km Length=0.08610570000000001 bus1=p1rdt805lv.1.2 bus2=p1rlv840.1.2 switch=n enabled=y phases=2 Linecode=1P_OH_AL_4/0_Zuzara_0_416_0_2_2_2_2_2_2_2_2_2_2_2_2_2_2_2_2_2_2_2_2_2_2_2_2_2_2_2_2_2

New Line.l(r:p1rdt806lv-p1rlv841) Units=km Length=0.001 bus1=p1rdt806lv.1.2 bus2=p1rlv841.1.2 switch=n enabled=y phases=2 Linecode=1P_OH_AL_4_Periwinkle_0_416_0_2_2_2_2_2_2_2_2_2_2_2_2_2_2_2_2_2_2_2_2_2_2_2_2_2_2_2_2_2

New Line.l(r:p1rdt1273lv-p1rlv1355) Units=km Length=0.0575131 bus1=p1rdt1273lv.1.2 bus2=p1rlv1355.1.2 switch=n enabled=y phases=2 Linecode=1P_OH_AL_4/0_Zuzara_0_416_0_2_2_2_2_2_2_2_2_2_2_2_2_2_2_2_2_2_2_2_2_2_2_2_2_2_2_2_2_2

New Line.l(r:p1rdt1273lv-p1rlv13405) Units=km Length=0.0575131 bus1=p1rdt1273lv.1.2 bus2=p1rlv13405.1.2 switch=n enabled=y phases=2 Linecode=1P_OH_AL_4/0_Zuzara_0_416_0_2_2_2_2_2_2_2_2_2_2_2_2_2_2_2_2_2_2_2_2_2_2_2_2_2_2_2_2_2

New Line.l(r:p1rdt1509lv-p1rlv1628) Units=km Length=0.0143117 bus1=p1rdt1509lv.1.2 bus2=p1rlv1628.1.2 switch=n enabled=y phases=2 Linecode=1P_OH_AL_2/0_Rucina_0_416_0_2_2_2_2_2_2_2_2_2_2_2_2_2_2_2_2_2_2_2_2_2_2_2_2_2_2_2_2_2

New Line.l(r:p1rdt1509lv-p1rlv10564) Units=km Length=0.0143117 bus1=p1rdt1509lv.1.2 bus2=p1rlv10564.1.2 switch=n enabled=y phases=2 Linecode=1P_OH_AL_2/0_Rucina_0_416_0_2_2_2_2_2_2_2_2_2_2_2_2_2_2_2_2_2_2_2_2_2_2_2_2_2_2_2_2_2

New Line.l(r:p1rdt1612lv-p1rlv1751) Units=km Length=0.0170601 bus1=p1rdt1612lv.1.2 bus2=p1rlv1751.1.2 switch=n enabled=y phases=2 Linecode=1P_OH_AL_2/0_Rucina_0_416_0_2_2_2_2_2_2_2_2_2_2_2_2_2_2_2_2_2_2_2_2_2_2_2_2_2_2_2_2_2

New Line.l(r:p1rdt1612lv-p1rlv4596) Units=km Length=0.0170601 bus1=p1rdt1612lv.1.2 bus2=p1rlv4596.1.2 switch=n enabled=y phases=2 Linecode=1P_OH_AL_2/0_Rucina_0_416_0_2_2_2_2_2_2_2_2_2_2_2_2_2_2_2_2_2_2_2_2_2_2_2_2_2_2_2_2_2

New Line.l(r:p1rdm4000-p1rlv2032) Units=km Length=0.0610348 bus1=p1rdm4000.1.2 bus2=p1rlv2032.1.2 switch=n enabled=y phases=2 Linecode=1P_OH_AL_4/0_Zuzara_0_416_0_2_2_2_2_2_2_2_2_2_2_2_2_2_2_2_2_2_2_2_2_2_2_2_2_2_2_2_2_2

New Line.l(r:p1rdm4000-p1rlv5402) Units=km Length=0.039427000000000004 bus1=p1rdm4000.1.2 bus2=p1rlv5402.1.2 switch=n enabled=y phases=2 Linecode=1P_OH_AL_4/0_Zuzara_0_416_0_2_2_2_2_2_2_2_2_2_2_2_2_2_2_2_2_2_2_2_2_2_2_2_2_2_2_2_2_2

New Line.l(r:p1rdm4000-p1rdt1841lv) Units=km Length=0.0134931 bus1=p1rdt1841lv.1.2 bus2=p1rdm4000.1.2 switch=n enabled=y phases=2 Linecode=1P_OH_AL_2/0_Rucina_0_416_0_2_2_2_2_2_2_2_2_2_2_2_2_2_2_2_2_2_2_2_2_2_2_2_2_2_2_2_2_2

New Line.l(r:p1rdm4002-p1rlv13407) Units=km Length=0.0431111 bus1=p1rdm4002.1.2 bus2=p1rlv13407.1.2 switch=n enabled=y phases=2 Linecode=1P_OH_AL_4/0_Zuzara_0_416_0_2_2_2_2_2_2_2_2_2_2_2_2_2_2_2_2_2_2_2_2_2_2_2_2_2_2_2_2_2

New Line.l(r:p1rdm4002-p1rlv13661) Units=km Length=0.0480793 bus1=p1rdm4002.1.2 bus2=p1rlv13661.1.2 switch=n enabled=y phases=2 Linecode=1P_OH_AL_4/0_Zuzara_0_416_0_2_2_2_2_2_2_2_2_2_2_2_2_2_2_2_2_2_2_2_2_2_2_2_2_2_2_2_2_2

New Line.l(r:p1rdm4002-p1rdt1841lv) Units=km Length=0.0134842 bus1=p1rdt1841lv.1.2 bus2=p1rdm4002.1.2 switch=n enabled=y phases=2 Linecode=1P_OH_AL_2/0_Rucina_0_416_0_2_2_2_2_2_2_2_2_2_2_2_2_2_2_2_2_2_2_2_2_2_2_2_2_2_2_2_2_2

New Line.l(r:p1rdt1951lv-p1rlv2160) Units=km Length=0.0681501 bus1=p1rdt1951lv.1.2 bus2=p1rlv2160.1.2 switch=n enabled=y phases=2 Linecode=1P_OH_AL_4/0_Zuzara_0_416_0_2_2_2_2_2_2_2_2_2_2_2_2_2_2_2_2_2_2_2_2_2_2_2_2_2_2_2_2_2

New Line.l(r:p1rdt1951lv-p1rlv6553) Units=km Length=0.0681501 bus1=p1rdt1951lv.1.2 bus2=p1rlv6553.1.2 switch=n enabled=y phases=2 Linecode=1P_OH_AL_4/0_Zuzara_0_416_0_2_2_2_2_2_2_2_2_2_2_2_2_2_2_2_2_2_2_2_2_2_2_2_2_2_2_2_2_2

New Line.l(r:p1rdt2076lv-p1rlv2312) Units=km Length=0.001 bus1=p1rdt2076lv.1.2 bus2=p1rlv2312.1.2 switch=n enabled=y phases=2 Linecode=1P_OH_AL_4_Periwinkle_0_416_0_2_2_2_2_2_2_2_2_2_2_2_2_2_2_2_2_2_2_2_2_2_2_2_2_2_2_2_2_2

New Line.l(r:p1rdt2193lv-p1rlv2448) Units=km Length=0.03595 bus1=p1rdt2193lv.1.2 bus2=p1rlv2448.1.2 switch=n enabled=y phases=2 Linecode=1P_OH_AL_4/0_Zuzara_0_416_0_2_2_2_2_2_2_2_2_2_2_2_2_2_2_2_2_2_2_2_2_2_2_2_2_2_2_2_2_2

New Line.l(r:p1rdt2193lv-p1rlv4298) Units=km Length=0.0123735 bus1=p1rdt2193lv.1.2 bus2=p1rlv4298.1.2 switch=n enabled=y phases=2 Linecode=1P_OH_AL_2/0_Rucina_0_416_0_2_2_2_2_2_2_2_2_2_2_2_2_2_2_2_2_2_2_2_2_2_2_2_2_2_2_2_2_2

New Line.l(r:p1rdt2193lv-p1rlv6315) Units=km Length=0.0233221 bus1=p1rdt2193lv.1.2 bus2=p1rlv6315.1.2 switch=n enabled=y phases=2 Linecode=1P_OH_AL_2/0_Rucina_0_416_0_2_2_2_2_2_2_2_2_2_2_2_2_2_2_2_2_2_2_2_2_2_2_2_2_2_2_2_2_2

New Line.l(r:p1rdt2193lv-p1rlv10040) Units=km Length=0.0636587 bus1=p1rdt2193lv.1.2 bus2=p1rlv10040.1.2 switch=n enabled=y phases=2 Linecode=1P_OH_AL_4/0_Zuzara_0_416_0_2_2_2_2_2_2_2_2_2_2_2_2_2_2_2_2_2_2_2_2_2_2_2_2_2_2_2_2_2

New Line.l(r:p1rdt2293lv-p1rlv2572) Units=km Length=0.04226100000000001 bus1=p1rdt2293lv.1.2 bus2=p1rlv2572.1.2 switch=n enabled=y phases=2 Linecode=1P_OH_AL_4/0_Zuzara_0_416_0_2_2_2_2_2_2_2_2_2_2_2_2_2_2_2_2_2_2_2_2_2_2_2_2_2_2_2_2_2

New Line.l(r:p1rdt2293lv-p1rlv7351) Units=km Length=0.0817732 bus1=p1rdt2293lv.1.2 bus2=p1rlv7351.1.2 switch=n enabled=y phases=2 Linecode=1P_OH_AL_4/0_Zuzara_0_416_0_2_2_2_2_2_2_2_2_2_2_2_2_2_2_2_2_2_2_2_2_2_2_2_2_2_2_2_2_2

New Line.l(r:p1rdt2293lv-p1rlv12383) Units=km Length=0.0438433 bus1=p1rdt2293lv.1.2 bus2=p1rlv12383.1.2 switch=n enabled=y phases=2 Linecode=1P_OH_AL_4/0_Zuzara_0_416_0_2_2_2_2_2_2_2_2_2_2_2_2_2_2_2_2_2_2_2_2_2_2_2_2_2_2_2_2_2

New Line.l(r:p1rdt2294lv-p1rlv2573) Units=km Length=0.0635668 bus1=p1rdt2294lv.1.2 bus2=p1rlv2573.1.2 switch=n enabled=y phases=2 Linecode=1P_OH_AL_4/0_Zuzara_0_416_0_2_2_2_2_2_2_2_2_2_2_2_2_2_2_2_2_2_2_2_2_2_2_2_2_2_2_2_2_2

New Line.l(r:p1rdt2294lv-p1rlv9749) Units=km Length=0.0635668 bus1=p1rdt2294lv.1.2 bus2=p1rlv9749.1.2 switch=n enabled=y phases=2 Linecode=1P_OH_AL_4/0_Zuzara_0_416_0_2_2_2_2_2_2_2_2_2_2_2_2_2_2_2_2_2_2_2_2_2_2_2_2_2_2_2_2_2

New Line.l(r:p1rdt2402lv-p1rlv2711) Units=km Length=0.001 bus1=p1rdt2402lv.1.2 bus2=p1rlv2711.1.2 switch=n enabled=y phases=2 Linecode=1P_OH_AL_4_Periwinkle_0_416_0_2_2_2_2_2_2_2_2_2_2_2_2_2_2_2_2_2_2_2_2_2_2_2_2_2_2_2_2_2

New Line.l(r:p1rdm5471-p1rlv2969) Units=km Length=0.0866849 bus1=p1rdm5471.1.2 bus2=p1rlv2969.1.2 switch=n enabled=y phases=2 Linecode=1P_OH_AL_4/0_Zuzara_0_416_0_2_2_2_2_2_2_2_2_2_2_2_2_2_2_2_2_2_2_2_2_2_2_2_2_2_2_2_2_2

New Line.l(r:p1rdm5471-p1rdt2602lv) Units=km Length=0.0174091 bus1=p1rdt2602lv.1.2 bus2=p1rdm5471.1.2 switch=n enabled=y phases=2 Linecode=1P_OH_AL_2/0_Rucina_0_416_0_2_2_2_2_2_2_2_2_2_2_2_2_2_2_2_2_2_2_2_2_2_2_2_2_2_2_2_2_2

New Line.l(r:p1rdm5472-p1rlv4597) Units=km Length=0.09899880000000001 bus1=p1rdm5472.1.2 bus2=p1rlv4597.1.2 switch=n enabled=y phases=2 Linecode=1P_OH_AL_4/0_Zuzara_0_416_0_2_2_2_2_2_2_2_2_2_2_2_2_2_2_2_2_2_2_2_2_2_2_2_2_2_2_2_2_2

New Line.l(r:p1rdm5472-p1rdt2602lv) Units=km Length=0.017412800000000003 bus1=p1rdt2602lv.1.2 bus2=p1rdm5472.1.2 switch=n enabled=y phases=2 Linecode=1P_OH_AL_2/0_Rucina_0_416_0_2_2_2_2_2_2_2_2_2_2_2_2_2_2_2_2_2_2_2_2_2_2_2_2_2_2_2_2_2

New Line.l(r:p1rdt2603lv-p1rlv2970) Units=km Length=0.0791931 bus1=p1rdt2603lv.1.2 bus2=p1rlv2970.1.2 switch=n enabled=y phases=2 Linecode=1P_OH_AL_4/0_Zuzara_0_416_0_2_2_2_2_2_2_2_2_2_2_2_2_2_2_2_2_2_2_2_2_2_2_2_2_2_2_2_2_2

New Line.l(r:p1rdt2603lv-p1rlv8964) Units=km Length=0.10529200000000001 bus1=p1rdt2603lv.1.2 bus2=p1rlv8964.1.2 switch=n enabled=y phases=2 Linecode=1P_OH_AL_4/0_Zuzara_0_416_0_2_2_2_2_2_2_2_2_2_2_2_2_2_2_2_2_2_2_2_2_2_2_2_2_2_2_2_2_2

New Line.l(r:p1rdt2799lv-p1rlv3218) Units=km Length=0.04638 bus1=p1rdt2799lv.1.2 bus2=p1rlv3218.1.2 switch=n enabled=y phases=2 Linecode=1P_OH_AL_4/0_Zuzara_0_416_0_2_2_2_2_2_2_2_2_2_2_2_2_2_2_2_2_2_2_2_2_2_2_2_2_2_2_2_2_2

New Line.l(r:p1rdt2799lv-p1rlv7226) Units=km Length=0.04638 bus1=p1rdt2799lv.1.2 bus2=p1rlv7226.1.2 switch=n enabled=y phases=2 Linecode=1P_OH_AL_4/0_Zuzara_0_416_0_2_2_2_2_2_2_2_2_2_2_2_2_2_2_2_2_2_2_2_2_2_2_2_2_2_2_2_2_2

New Line.l(r:p1rdt2899lv-p1rlv3344) Units=km Length=0.001 bus1=p1rdt2899lv.1.2 bus2=p1rlv3344.1.2 switch=n enabled=y phases=2 Linecode=1P_OH_AL_4_Periwinkle_0_416_0_2_2_2_2_2_2_2_2_2_2_2_2_2_2_2_2_2_2_2_2_2_2_2_2_2_2_2_2_2

New Line.l(r:p1rdt3307lv-p1rlv3900) Units=km Length=0.0363096 bus1=p1rdt3307lv.1.2 bus2=p1rlv3900.1.2 switch=n enabled=y phases=2 Linecode=1P_OH_AL_4/0_Zuzara_0_416_0_2_2_2_2_2_2_2_2_2_2_2_2_2_2_2_2_2_2_2_2_2_2_2_2_2_2_2_2_2

New Line.l(r:p1rdm6750-p1rlv7352) Units=km Length=0.065389 bus1=p1rdm6750.1.2 bus2=p1rlv7352.1.2 switch=n enabled=y phases=2 Linecode=1P_OH_AL_4/0_Zuzara_0_416_0_2_2_2_2_2_2_2_2_2_2_2_2_2_2_2_2_2_2_2_2_2_2_2_2_2_2_2_2_2

New Line.l(r:p1rdm6750-p1rdt3307lv) Units=km Length=0.0162757 bus1=p1rdt3307lv.1.2 bus2=p1rdm6750.1.2 switch=n enabled=y phases=2 Linecode=1P_OH_AL_2/0_Rucina_0_416_0_2_2_2_2_2_2_2_2_2_2_2_2_2_2_2_2_2_2_2_2_2_2_2_2_2_2_2_2_2

New Line.l(r:p1rdt3395lv-p1rlv4028) Units=km Length=0.0271233 bus1=p1rdt3395lv.1.2 bus2=p1rlv4028.1.2 switch=n enabled=y phases=2 Linecode=1P_OH_AL_4/0_Zuzara_0_416_0_2_2_2_2_2_2_2_2_2_2_2_2_2_2_2_2_2_2_2_2_2_2_2_2_2_2_2_2_2

New Line.l(r:p1rdt3395lv-p1rlv9220) Units=km Length=0.0271233 bus1=p1rdt3395lv.1.2 bus2=p1rlv9220.1.2 switch=n enabled=y phases=2 Linecode=1P_OH_AL_4/0_Zuzara_0_416_0_2_2_2_2_2_2_2_2_2_2_2_2_2_2_2_2_2_2_2_2_2_2_2_2_2_2_2_2_2

New Line.l(r:p1rdt3396lv-p1rlv4029) Units=km Length=0.0190244 bus1=p1rdt3396lv.1.2 bus2=p1rlv4029.1.2 switch=n enabled=y phases=2 Linecode=1P_OH_AL_2/0_Rucina_0_416_0_2_2_2_2_2_2_2_2_2_2_2_2_2_2_2_2_2_2_2_2_2_2_2_2_2_2_2_2_2

New Line.l(r:p1rdt3396lv-p1rlv7912) Units=km Length=0.0190244 bus1=p1rdt3396lv.1.2 bus2=p1rlv7912.1.2 switch=n enabled=y phases=2 Linecode=1P_OH_AL_2/0_Rucina_0_416_0_2_2_2_2_2_2_2_2_2_2_2_2_2_2_2_2_2_2_2_2_2_2_2_2_2_2_2_2_2

New Line.l(r:p1rdt3397lv-p1rlv4030) Units=km Length=0.0246849 bus1=p1rdt3397lv.1.2 bus2=p1rlv4030.1.2 switch=n enabled=y phases=2 Linecode=1P_OH_AL_2/0_Rucina_0_416_0_2_2_2_2_2_2_2_2_2_2_2_2_2_2_2_2_2_2_2_2_2_2_2_2_2_2_2_2_2

New Line.l(r:p1rdt3397lv-p1rlv5801) Units=km Length=0.0246849 bus1=p1rdt3397lv.1.2 bus2=p1rlv5801.1.2 switch=n enabled=y phases=2 Linecode=1P_OH_AL_2/0_Rucina_0_416_0_2_2_2_2_2_2_2_2_2_2_2_2_2_2_2_2_2_2_2_2_2_2_2_2_2_2_2_2_2

New Line.l(r:p1rdt3398lv-p1rlv4031) Units=km Length=0.0408146 bus1=p1rdt3398lv.1.2 bus2=p1rlv4031.1.2 switch=n enabled=y phases=2 Linecode=1P_OH_AL_4/0_Zuzara_0_416_0_2_2_2_2_2_2_2_2_2_2_2_2_2_2_2_2_2_2_2_2_2_2_2_2_2_2_2_2_2

New Line.l(r:p1rdt3398lv-p1rlv11821) Units=km Length=0.0408146 bus1=p1rdt3398lv.1.2 bus2=p1rlv11821.1.2 switch=n enabled=y phases=2 Linecode=1P_OH_AL_4/0_Zuzara_0_416_0_2_2_2_2_2_2_2_2_2_2_2_2_2_2_2_2_2_2_2_2_2_2_2_2_2_2_2_2_2

New Line.l(r:p1rdt3587lv-p1rlv4297) Units=km Length=0.0192512 bus1=p1rdt3587lv.1.2 bus2=p1rlv4297.1.2 switch=n enabled=y phases=2 Linecode=1P_OH_AL_2/0_Rucina_0_416_0_2_2_2_2_2_2_2_2_2_2_2_2_2_2_2_2_2_2_2_2_2_2_2_2_2_2_2_2_2

New Line.l(r:p1rdt3587lv-p1rlv8829) Units=km Length=0.0192512 bus1=p1rdt3587lv.1.2 bus2=p1rlv8829.1.2 switch=n enabled=y phases=2 Linecode=1P_OH_AL_2/0_Rucina_0_416_0_2_2_2_2_2_2_2_2_2_2_2_2_2_2_2_2_2_2_2_2_2_2_2_2_2_2_2_2_2

New Line.l(r:p1rdt3588lv-p1rlv4299) Units=km Length=0.013416300000000003 bus1=p1rdt3588lv.1.2 bus2=p1rlv4299.1.2 switch=n enabled=y phases=2 Linecode=1P_OH_AL_2/0_Rucina_0_416_0_2_2_2_2_2_2_2_2_2_2_2_2_2_2_2_2_2_2_2_2_2_2_2_2_2_2_2_2_2

New Line.l(r:p1rdt3588lv-p1rlv8693) Units=km Length=0.013416300000000003 bus1=p1rdt3588lv.1.2 bus2=p1rlv8693.1.2 switch=n enabled=y phases=2 Linecode=1P_OH_AL_2/0_Rucina_0_416_0_2_2_2_2_2_2_2_2_2_2_2_2_2_2_2_2_2_2_2_2_2_2_2_2_2_2_2_2_2

New Line.l(r:p1rdt3982lv-p1rlv4886) Units=km Length=0.001 bus1=p1rdt3982lv.1.2 bus2=p1rlv4886.1.2 switch=n enabled=y phases=2 Linecode=1P_OH_AL_4_Periwinkle_0_416_0_2_2_2_2_2_2_2_2_2_2_2_2_2_2_2_2_2_2_2_2_2_2_2_2_2_2_2_2_2

New Line.l(r:p1rdt4223lv-p1rlv7778) Units=km Length=0.05806800000000001 bus1=p1rdt4223lv.1.2 bus2=p1rlv7778.1.2 switch=n enabled=y phases=2 Linecode=1P_UG_AL_1/0_Brenau_0_416_0_2_2_2_2_2_2_2_2_2_2_2_2_2_2_2_2_2_2_2_2_2_2_2_2_2_2_2_2_2

New Line.l(r:p1rdm8314-p1rlv5261) Units=km Length=0.069749 bus1=p1rdm8314.1.2 bus2=p1rlv5261.1.2 switch=n enabled=y phases=2 Linecode=1P_UG_AL_1/0_Brenau_0_416_0_2_2_2_2_2_2_2_2_2_2_2_2_2_2_2_2_2_2_2_2_2_2_2_2_2_2_2_2_2

New Line.l(r:p1rdm8314-p1rdt4223lv) Units=km Length=0.00831407 bus1=p1rdt4223lv.1.2 bus2=p1rdm8314.1.2 switch=n enabled=y phases=2 Linecode=1P_UG_AL_1/0_Brenau_0_416_0_2_2_2_2_2_2_2_2_2_2_2_2_2_2_2_2_2_2_2_2_2_2_2_2_2_2_2_2_2

New Line.l(r:p1rdt4383lv-p1rlv5528) Units=km Length=0.0528365 bus1=p1rdt4383lv.1.2 bus2=p1rlv5528.1.2 switch=n enabled=y phases=2 Linecode=1P_OH_AL_4/0_Zuzara_0_416_0_2_2_2_2_2_2_2_2_2_2_2_2_2_2_2_2_2_2_2_2_2_2_2_2_2_2_2_2_2

New Line.l(r:p1rdt4383lv-p1rlv10425) Units=km Length=0.052294 bus1=p1rdt4383lv.1.2 bus2=p1rlv10425.1.2 switch=n enabled=y phases=2 Linecode=1P_OH_AL_4/0_Zuzara_0_416_0_2_2_2_2_2_2_2_2_2_2_2_2_2_2_2_2_2_2_2_2_2_2_2_2_2_2_2_2_2

New Line.l(r:p1rdt4383lv-p1rlv10566) Units=km Length=0.0486524 bus1=p1rdt4383lv.1.2 bus2=p1rlv10566.1.2 switch=n enabled=y phases=2 Linecode=1P_OH_AL_4/0_Zuzara_0_416_0_2_2_2_2_2_2_2_2_2_2_2_2_2_2_2_2_2_2_2_2_2_2_2_2_2_2_2_2_2

New Line.l(r:p1rdt4384lv-p1rlv5529) Units=km Length=0.001 bus1=p1rdt4384lv.1.2 bus2=p1rlv5529.1.2 switch=n enabled=y phases=2 Linecode=1P_OH_AL_4_Periwinkle_0_416_0_2_2_2_2_2_2_2_2_2_2_2_2_2_2_2_2_2_2_2_2_2_2_2_2_2_2_2_2_2

New Line.l(r:p1rdt4385lv-p1rlv5530) Units=km Length=0.0190387 bus1=p1rdt4385lv.1.2 bus2=p1rlv5530.1.2 switch=n enabled=y phases=2 Linecode=1P_OH_AL_2/0_Rucina_0_416_0_2_2_2_2_2_2_2_2_2_2_2_2_2_2_2_2_2_2_2_2_2_2_2_2_2_2_2_2_2

New Line.l(r:p1rdt4385lv-p1rlv6316) Units=km Length=0.0208291 bus1=p1rdt4385lv.1.2 bus2=p1rlv6316.1.2 switch=n enabled=y phases=2 Linecode=1P_OH_AL_2/0_Rucina_0_416_0_2_2_2_2_2_2_2_2_2_2_2_2_2_2_2_2_2_2_2_2_2_2_2_2_2_2_2_2_2

New Line.l(r:p1rdt4385lv-p1rlv11957) Units=km Length=0.011751600000000001 bus1=p1rdt4385lv.1.2 bus2=p1rlv11957.1.2 switch=n enabled=y phases=2 Linecode=1P_OH_AL_2/0_Rucina_0_416_0_2_2_2_2_2_2_2_2_2_2_2_2_2_2_2_2_2_2_2_2_2_2_2_2_2_2_2_2_2

New Line.l(r:p1rdt4475lv-p1rlv5674) Units=km Length=0.001 bus1=p1rdt4475lv.1.2 bus2=p1rlv5674.1.2 switch=n enabled=y phases=2 Linecode=1P_OH_AL_4_Periwinkle_0_416_0_2_2_2_2_2_2_2_2_2_2_2_2_2_2_2_2_2_2_2_2_2_2_2_2_2_2_2_2_2

New Line.l(r:p1rdt4476lv-p1rlv5675) Units=km Length=0.0398222 bus1=p1rdt4476lv.1.2 bus2=p1rlv5675.1.2 switch=n enabled=y phases=2 Linecode=1P_OH_AL_4/0_Zuzara_0_416_0_2_2_2_2_2_2_2_2_2_2_2_2_2_2_2_2_2_2_2_2_2_2_2_2_2_2_2_2_2

New Line.l(r:p1rdt4712lv-p1rlv6072) Units=km Length=0.001 bus1=p1rdt4712lv.1.2 bus2=p1rlv6072.1.2 switch=n enabled=y phases=2 Linecode=1P_OH_AL_4_Periwinkle_0_416_0_2_2_2_2_2_2_2_2_2_2_2_2_2_2_2_2_2_2_2_2_2_2_2_2_2_2_2_2_2

New Line.l(r:p1rdt4782lv-p1rlv6188) Units=km Length=0.001 bus1=p1rdt4782lv.1.2 bus2=p1rlv6188.1.2 switch=n enabled=y phases=2 Linecode=1P_OH_AL_4_Periwinkle_0_416_0_2_2_2_2_2_2_2_2_2_2_2_2_2_2_2_2_2_2_2_2_2_2_2_2_2_2_2_2_2

New Line.l(r:p1rdt4783lv-p1rlv6189) Units=km Length=0.001 bus1=p1rdt4783lv.1.2 bus2=p1rlv6189.1.2 switch=n enabled=y phases=2 Linecode=1P_OH_AL_4_Periwinkle_0_416_0_2_2_2_2_2_2_2_2_2_2_2_2_2_2_2_2_2_2_2_2_2_2_2_2_2_2_2_2_2

New Line.l(r:p1rdt4784lv-p1rlv6190) Units=km Length=0.001 bus1=p1rdt4784lv.1.2 bus2=p1rlv6190.1.2 switch=n enabled=y phases=2 Linecode=1P_OH_AL_4_Periwinkle_0_416_0_2_2_2_2_2_2_2_2_2_2_2_2_2_2_2_2_2_2_2_2_2_2_2_2_2_2_2_2_2

New Line.l(r:p1rdt4856lv-p1rlv6312) Units=km Length=0.001 bus1=p1rdt4856lv.1.2 bus2=p1rlv6312.1.2 switch=n enabled=y phases=2 Linecode=1P_OH_AL_4_Periwinkle_0_416_0_2_2_2_2_2_2_2_2_2_2_2_2_2_2_2_2_2_2_2_2_2_2_2_2_2_2_2_2_2

New Line.l(r:p1rdt4857lv-p1rlv6313) Units=km Length=0.0128711 bus1=p1rdt4857lv.1.2 bus2=p1rlv6313.1.2 switch=n enabled=y phases=2 Linecode=1P_OH_AL_2/0_Rucina_0_416_0_2_2_2_2_2_2_2_2_2_2_2_2_2_2_2_2_2_2_2_2_2_2_2_2_2_2_2_2_2

New Line.l(r:p1rdt4858lv-p1rlv6314) Units=km Length=0.001 bus1=p1rdt4858lv.1.2 bus2=p1rlv6314.1.2 switch=n enabled=y phases=2 Linecode=1P_OH_AL_4_Periwinkle_0_416_0_2_2_2_2_2_2_2_2_2_2_2_2_2_2_2_2_2_2_2_2_2_2_2_2_2_2_2_2_2

New Line.l(r:p1rdt4999lv-p1rlv6552) Units=km Length=0.0186391 bus1=p1rdt4999lv.1.2 bus2=p1rlv6552.1.2 switch=n enabled=y phases=2 Linecode=1P_OH_AL_2/0_Rucina_0_416_0_2_2_2_2_2_2_2_2_2_2_2_2_2_2_2_2_2_2_2_2_2_2_2_2_2_2_2_2_2

New Line.l(r:p1rdt4999lv-p1rlv11524) Units=km Length=0.0186391 bus1=p1rdt4999lv.1.2 bus2=p1rlv11524.1.2 switch=n enabled=y phases=2 Linecode=1P_OH_AL_2/0_Rucina_0_416_0_2_2_2_2_2_2_2_2_2_2_2_2_2_2_2_2_2_2_2_2_2_2_2_2_2_2_2_2_2

New Line.l(r:p1rdt5000lv-p1rlv6554) Units=km Length=0.0297743 bus1=p1rdt5000lv.1.2 bus2=p1rlv6554.1.2 switch=n enabled=y phases=2 Linecode=1P_OH_AL_4/0_Zuzara_0_416_0_2_2_2_2_2_2_2_2_2_2_2_2_2_2_2_2_2_2_2_2_2_2_2_2_2_2_2_2_2

New Line.l(r:p1rdt5000lv-p1rlv10565) Units=km Length=0.0297743 bus1=p1rdt5000lv.1.2 bus2=p1rlv10565.1.2 switch=n enabled=y phases=2 Linecode=1P_OH_AL_4/0_Zuzara_0_416_0_2_2_2_2_2_2_2_2_2_2_2_2_2_2_2_2_2_2_2_2_2_2_2_2_2_2_2_2_2

New Line.l(r:p1rdt5097lv-p1rlv6703) Units=km Length=0.0512162 bus1=p1rdt5097lv.1.2 bus2=p1rlv6703.1.2 switch=n enabled=y phases=2 Linecode=1P_OH_AL_4/0_Zuzara_0_416_0_2_2_2_2_2_2_2_2_2_2_2_2_2_2_2_2_2_2_2_2_2_2_2_2_2_2_2_2_2

New Line.l(r:p1rdt5097lv-p1rlv13531) Units=km Length=0.0512162 bus1=p1rdt5097lv.1.2 bus2=p1rlv13531.1.2 switch=n enabled=y phases=2 Linecode=1P_OH_AL_4/0_Zuzara_0_416_0_2_2_2_2_2_2_2_2_2_2_2_2_2_2_2_2_2_2_2_2_2_2_2_2_2_2_2_2_2

New Line.l(r:p1rdt5181lv-p1rlv6826) Units=km Length=0.0408454 bus1=p1rdt5181lv.1.2 bus2=p1rlv6826.1.2 switch=n enabled=y phases=2 Linecode=1P_OH_AL_4/0_Zuzara_0_416_0_2_2_2_2_2_2_2_2_2_2_2_2_2_2_2_2_2_2_2_2_2_2_2_2_2_2_2_2_2

New Line.l(r:p1rdt5181lv-p1rlv10289) Units=km Length=0.0408454 bus1=p1rdt5181lv.1.2 bus2=p1rlv10289.1.2 switch=n enabled=y phases=2 Linecode=1P_OH_AL_4/0_Zuzara_0_416_0_2_2_2_2_2_2_2_2_2_2_2_2_2_2_2_2_2_2_2_2_2_2_2_2_2_2_2_2_2

New Line.l(r:p1rdt5252lv-p1rlv6940) Units=km Length=0.0566087 bus1=p1rdt5252lv.1.2 bus2=p1rlv6940.1.2 switch=n enabled=y phases=2 Linecode=1P_OH_AL_4/0_Zuzara_0_416_0_2_2_2_2_2_2_2_2_2_2_2_2_2_2_2_2_2_2_2_2_2_2_2_2_2_2_2_2_2

New Line.l(r:p1rdt5253lv-p1rlv6941) Units=km Length=0.0436944 bus1=p1rdt5253lv.1.2 bus2=p1rlv6941.1.2 switch=n enabled=y phases=2 Linecode=1P_OH_AL_4/0_Zuzara_0_416_0_2_2_2_2_2_2_2_2_2_2_2_2_2_2_2_2_2_2_2_2_2_2_2_2_2_2_2_2_2

New Line.l(r:p1rdt5253lv-p1rlv13014) Units=km Length=0.0436944 bus1=p1rdt5253lv.1.2 bus2=p1rlv13014.1.2 switch=n enabled=y phases=2 Linecode=1P_OH_AL_4/0_Zuzara_0_416_0_2_2_2_2_2_2_2_2_2_2_2_2_2_2_2_2_2_2_2_2_2_2_2_2_2_2_2_2_2

New Line.l(r:p1rdt5478lv-p1rlv7353) Units=km Length=0.0631237 bus1=p1rdt5478lv.1.2 bus2=p1rlv7353.1.2 switch=n enabled=y phases=2 Linecode=1P_OH_AL_4/0_Zuzara_0_416_0_2_2_2_2_2_2_2_2_2_2_2_2_2_2_2_2_2_2_2_2_2_2_2_2_2_2_2_2_2

New Line.l(r:p1rdt5478lv-p1rlv8692) Units=km Length=0.0631237 bus1=p1rdt5478lv.1.2 bus2=p1rlv8692.1.2 switch=n enabled=y phases=2 Linecode=1P_OH_AL_4/0_Zuzara_0_416_0_2_2_2_2_2_2_2_2_2_2_2_2_2_2_2_2_2_2_2_2_2_2_2_2_2_2_2_2_2

New Line.l(r:p1rdt5709lv-p1rlv7777) Units=km Length=0.00507469 bus1=p1rdt5709lv.1.2 bus2=p1rlv7777.1.2 switch=n enabled=y phases=2 Linecode=1P_OH_AL_2/0_Rucina_0_416_0_2_2_2_2_2_2_2_2_2_2_2_2_2_2_2_2_2_2_2_2_2_2_2_2_2_2_2_2_2

New Line.l(r:p1rdt5785lv-p1rlv7909) Units=km Length=0.0696296 bus1=p1rdt5785lv.1.2 bus2=p1rlv7909.1.2 switch=n enabled=y phases=2 Linecode=1P_OH_AL_4/0_Zuzara_0_416_0_2_2_2_2_2_2_2_2_2_2_2_2_2_2_2_2_2_2_2_2_2_2_2_2_2_2_2_2_2

New Line.l(r:p1rdt5786lv-p1rlv7910) Units=km Length=0.001 bus1=p1rdt5786lv.1.2 bus2=p1rlv7910.1.2 switch=n enabled=y phases=2 Linecode=1P_OH_AL_4_Periwinkle_0_416_0_2_2_2_2_2_2_2_2_2_2_2_2_2_2_2_2_2_2_2_2_2_2_2_2_2_2_2_2_2

New Line.l(r:p1rdt5788lv-p1rlv7913) Units=km Length=0.001 bus1=p1rdt5788lv.1.2 bus2=p1rlv7913.1.2 switch=n enabled=y phases=2 Linecode=1P_OH_AL_4_Periwinkle_0_416_0_2_2_2_2_2_2_2_2_2_2_2_2_2_2_2_2_2_2_2_2_2_2_2_2_2_2_2_2_2

New Line.l(r:p1rdt5850lv-p1rlv8030) Units=km Length=0.001 bus1=p1rdt5850lv.1.2 bus2=p1rlv8030.1.2 switch=n enabled=y phases=2 Linecode=1P_OH_AL_4_Periwinkle_0_416_0_2_2_2_2_2_2_2_2_2_2_2_2_2_2_2_2_2_2_2_2_2_2_2_2_2_2_2_2_2

New Line.l(r:p1rdt6190lv-p1rlv8689) Units=km Length=0.001 bus1=p1rdt6190lv.1.2 bus2=p1rlv8689.1.2 switch=n enabled=y phases=2 Linecode=1P_OH_AL_4_Periwinkle_0_416_0_2_2_2_2_2_2_2_2_2_2_2_2_2_2_2_2_2_2_2_2_2_2_2_2_2_2_2_2_2

New Line.l(r:p1rdt6192lv-p1rlv8691) Units=km Length=0.001 bus1=p1rdt6192lv.1.2 bus2=p1rlv8691.1.2 switch=n enabled=y phases=2 Linecode=1P_OH_AL_4_Periwinkle_0_416_0_2_2_2_2_2_2_2_2_2_2_2_2_2_2_2_2_2_2_2_2_2_2_2_2_2_2_2_2_2

New Line.l(r:p1rdt6337lv-p1rlv8963) Units=km Length=0.001 bus1=p1rdt6337lv.1.2 bus2=p1rlv8963.1.2 switch=n enabled=y phases=2 Linecode=1P_OH_AL_4_Periwinkle_0_416_0_2_2_2_2_2_2_2_2_2_2_2_2_2_2_2_2_2_2_2_2_2_2_2_2_2_2_2_2_2

New Line.l(r:p1rdt6396lv-p1rlv9086) Units=km Length=0.001 bus1=p1rdt6396lv.1.2 bus2=p1rlv9086.1.2 switch=n enabled=y phases=2 Linecode=1P_OH_AL_4_Periwinkle_0_416_0_2_2_2_2_2_2_2_2_2_2_2_2_2_2_2_2_2_2_2_2_2_2_2_2_2_2_2_2_2

New Line.l(r:p1rdt6397lv-p1rlv9087) Units=km Length=0.001 bus1=p1rdt6397lv.1.2 bus2=p1rlv9087.1.2 switch=n enabled=y phases=2 Linecode=1P_OH_AL_4_Periwinkle_0_416_0_2_2_2_2_2_2_2_2_2_2_2_2_2_2_2_2_2_2_2_2_2_2_2_2_2_2_2_2_2

New Line.l(r:p1rdt6463lv-p1rlv9219) Units=km Length=0.001 bus1=p1rdt6463lv.1.2 bus2=p1rlv9219.1.2 switch=n enabled=y phases=2 Linecode=1P_OH_AL_4_Periwinkle_0_416_0_2_2_2_2_2_2_2_2_2_2_2_2_2_2_2_2_2_2_2_2_2_2_2_2_2_2_2_2_2

New Line.l(r:p1rdt6709lv-p1rlv13403) Units=km Length=0.0330474 bus1=p1rdt6709lv.1.2 bus2=p1rlv13403.1.2 switch=n enabled=y phases=2 Linecode=1P_OH_AL_4/0_Zuzara_0_416_0_2_2_2_2_2_2_2_2_2_2_2_2_2_2_2_2_2_2_2_2_2_2_2_2_2_2_2_2_2

New Line.l(r:p1rdm11928-p1rlv9750) Units=km Length=0.04322150000000001 bus1=p1rdm11928.1.2 bus2=p1rlv9750.1.2 switch=n enabled=y phases=2 Linecode=1P_OH_AL_4/0_Zuzara_0_416_0_2_2_2_2_2_2_2_2_2_2_2_2_2_2_2_2_2_2_2_2_2_2_2_2_2_2_2_2_2

New Line.l(r:p1rdm11928-p1rdt6709lv) Units=km Length=0.012537800000000002 bus1=p1rdt6709lv.1.2 bus2=p1rdm11928.1.2 switch=n enabled=y phases=2 Linecode=1P_OH_AL_2/0_Rucina_0_416_0_2_2_2_2_2_2_2_2_2_2_2_2_2_2_2_2_2_2_2_2_2_2_2_2_2_2_2_2_2

New Line.l(r:p1rdm11930-p1rlv13790) Units=km Length=0.074826 bus1=p1rdm11930.1.2 bus2=p1rlv13790.1.2 switch=n enabled=y phases=2 Linecode=1P_OH_AL_4/0_Zuzara_0_416_0_2_2_2_2_2_2_2_2_2_2_2_2_2_2_2_2_2_2_2_2_2_2_2_2_2_2_2_2_2

New Line.l(r:p1rdm11930-p1rdt6709lv) Units=km Length=0.0163115 bus1=p1rdt6709lv.1.2 bus2=p1rdm11930.1.2 switch=n enabled=y phases=2 Linecode=1P_OH_AL_2/0_Rucina_0_416_0_2_2_2_2_2_2_2_2_2_2_2_2_2_2_2_2_2_2_2_2_2_2_2_2_2_2_2_2_2

New Line.l(r:p1rdt6710lv-p1rlv9751) Units=km Length=0.001 bus1=p1rdt6710lv.1.2 bus2=p1rlv9751.1.2 switch=n enabled=y phases=2 Linecode=1P_OH_AL_4_Periwinkle_0_416_0_2_2_2_2_2_2_2_2_2_2_2_2_2_2_2_2_2_2_2_2_2_2_2_2_2_2_2_2_2

New Line.l(r:p1rdt6839lv-p1rlv10039) Units=km Length=0.001 bus1=p1rdt6839lv.1.2 bus2=p1rlv10039.1.2 switch=n enabled=y phases=2 Linecode=1P_OH_AL_4_Periwinkle_0_416_0_2_2_2_2_2_2_2_2_2_2_2_2_2_2_2_2_2_2_2_2_2_2_2_2_2_2_2_2_2

New Line.l(r:p1rdt6999lv-p1rlv10426) Units=km Length=0.0377323 bus1=p1rdt6999lv.1.2 bus2=p1rlv10426.1.2 switch=n enabled=y phases=2 Linecode=1P_OH_AL_4/0_Zuzara_0_416_0_2_2_2_2_2_2_2_2_2_2_2_2_2_2_2_2_2_2_2_2_2_2_2_2_2_2_2_2_2

New Line.l(r:p1rdt6999lv-p1rlv11822) Units=km Length=0.0416653 bus1=p1rdt6999lv.1.2 bus2=p1rlv11822.1.2 switch=n enabled=y phases=2 Linecode=1P_OH_AL_4/0_Zuzara_0_416_0_2_2_2_2_2_2_2_2_2_2_2_2_2_2_2_2_2_2_2_2_2_2_2_2_2_2_2_2_2

New Line.l(r:p1rdt6999lv-p1rlv13662) Units=km Length=0.010784 bus1=p1rdt6999lv.1.2 bus2=p1rlv13662.1.2 switch=n enabled=y phases=2 Linecode=1P_OH_AL_2/0_Rucina_0_416_0_2_2_2_2_2_2_2_2_2_2_2_2_2_2_2_2_2_2_2_2_2_2_2_2_2_2_2_2_2

New Line.l(r:p1rdt7311lv-p1rlv11139) Units=km Length=0.0248963 bus1=p1rdt7311lv.1.2 bus2=p1rlv11139.1.2 switch=n enabled=y phases=2 Linecode=1P_UG_AL_1/0_Brenau_0_416_0_2_2_2_2_2_2_2_2_2_2_2_2_2_2_2_2_2_2_2_2_2_2_2_2_2_2_2_2_2
