New Line.l(r:p1udt417lv-p1ulv35270) Units=km Length=0.0162927 bus1=p1udt417lv.1.2 bus2=p1ulv35270.1.2 switch=n enabled=y phases=2 Linecode=1P_UG_AL_1/0_Brenau_0_416_0_2_2_2_2

New Line.l(r:p1udm1499-p1ulv421) Units=km Length=0.0241234 bus1=p1udm1499.1.2 bus2=p1ulv421.1.2 switch=n enabled=y phases=2 Linecode=1P_UG_AL_1/0_Brenau_0_416_0_2_2_2_2

New Line.l(r:p1udm1499-p1udt417lv) Units=km Length=0.0195047 bus1=p1udt417lv.1.2 bus2=p1udm1499.1.2 switch=n enabled=y phases=2 Linecode=1P_UG_AL_1/0_Brenau_0_416_0_2_2_2_2

New Line.l(r:p1udm1500-p1ulv32048) Units=km Length=0.0168897 bus1=p1udm1500.1.2 bus2=p1ulv32048.1.2 switch=n enabled=y phases=2 Linecode=1P_UG_AL_1/0_Brenau_0_416_0_2_2_2_2

New Line.l(r:p1udm1500-p1udt417lv) Units=km Length=0.0292706 bus1=p1udt417lv.1.2 bus2=p1udm1500.1.2 switch=n enabled=y phases=2 Linecode=1P_UG_AL_1/0_Brenau_0_416_0_2_2_2_2

New Line.l(r:p1udt437lv-p1ulv37200) Units=km Length=0.0160767 bus1=p1udt437lv.1.2 bus2=p1ulv37200.1.2 switch=n enabled=y phases=2 Linecode=1P_UG_AL_1/0_Brenau_0_416_0_2_2_2_2

New Line.l(r:p1udm1587-p1ulv17405) Units=km Length=0.0168944 bus1=p1udm1587.1.2 bus2=p1ulv17405.1.2 switch=n enabled=y phases=2 Linecode=1P_UG_AL_1/0_Brenau_0_416_0_2_2_2_2

New Line.l(r:p1udm1587-p1ulv22529) Units=km Length=0.0170647 bus1=p1udm1587.1.2 bus2=p1ulv22529.1.2 switch=n enabled=y phases=2 Linecode=1P_UG_AL_1/0_Brenau_0_416_0_2_2_2_2

New Line.l(r:p1udm1585-p1ulv441) Units=km Length=0.0157457 bus1=p1udm1585.1.2 bus2=p1ulv441.1.2 switch=n enabled=y phases=2 Linecode=1P_UG_AL_1/0_Brenau_0_416_0_2_2_2_2

New Line.l(r:p1udm1585-p1udm1587) Units=km Length=0.00959827 bus1=p1udm1587.1.2 bus2=p1udm1585.1.2 switch=n enabled=y phases=2 Linecode=1P_UG_AL_1/0_Brenau_0_416_0_2_2_2_2

New Line.l(r:p1udm1587-p1udt437lv) Units=km Length=0.0191829 bus1=p1udt437lv.1.2 bus2=p1udm1587.1.2 switch=n enabled=y phases=2 Linecode=1P_UG_AL_4/0_Sweetbriar_0_416_0_2_2_2_2

New Line.l(r:p1udm1590-p1ulv39690) Units=km Length=0.0158942 bus1=p1udm1590.1.2 bus2=p1ulv39690.1.2 switch=n enabled=y phases=2 Linecode=1P_UG_AL_1/0_Brenau_0_416_0_2_2_2_2

New Line.l(r:p1udm1586-p1ulv10532) Units=km Length=0.0152271 bus1=p1udm1586.1.2 bus2=p1ulv10532.1.2 switch=n enabled=y phases=2 Linecode=1P_UG_AL_1/0_Brenau_0_416_0_2_2_2_2

New Line.l(r:p1udm1586-p1udm1590) Units=km Length=0.0383746 bus1=p1udm1590.1.2 bus2=p1udm1586.1.2 switch=n enabled=y phases=2 Linecode=1P_UG_AL_1/0_Brenau_0_416_0_2_2_2_2

New Line.l(r:p1udm1590-p1udt437lv) Units=km Length=0.00959827 bus1=p1udt437lv.1.2 bus2=p1udm1590.1.2 switch=n enabled=y phases=2 Linecode=1P_UG_AL_4/0_Sweetbriar_0_416_0_2_2_2_2

New Line.l(r:p1udt1021lv-p1ulv1041) Units=km Length=0.01682 bus1=p1udt1021lv.1.2 bus2=p1ulv1041.1.2 switch=n enabled=y phases=2 Linecode=1P_UG_AL_1/0_Brenau_0_416_0_2_2_2_2

New Line.l(r:p1udm3742-p1ulv42762) Units=km Length=0.016922 bus1=p1udm3742.1.2 bus2=p1ulv42762.1.2 switch=n enabled=y phases=2 Linecode=1P_UG_AL_4/0_Sweetbriar_0_416_0_2_2_2_2

New Line.l(r:p1udm3742-p1udt1021lv) Units=km Length=0.0092725 bus1=p1udt1021lv.1.2 bus2=p1udm3742.1.2 switch=n enabled=y phases=2 Linecode=1P_UG_AL_4/0_Sweetbriar_0_416_0_2_2_2_2

New Line.l(r:p1udt1039lv-p1ulv32710) Units=km Length=0.0171209 bus1=p1udt1039lv.1.2 bus2=p1ulv32710.1.2 switch=n enabled=y phases=2 Linecode=1P_UG_AL_2/0_Converse_0_416_0_2_2_2_2

New Line.l(r:p1udm3805-p1ulv1060) Units=km Length=0.019226 bus1=p1udm3805.1.2 bus2=p1ulv1060.1.2 switch=n enabled=y phases=2 Linecode=1P_UG_AL_4/0_Sweetbriar_0_416_0_2_2_2_2

New Line.l(r:p1udm3805-p1udt1039lv) Units=km Length=0.0293507 bus1=p1udt1039lv.1.2 bus2=p1udm3805.1.2 switch=n enabled=y phases=2 Linecode=1P_UG_AL_4/0_Sweetbriar_0_416_0_2_2_2_2

New Line.l(r:p1udm3807-p1ulv40363) Units=km Length=0.0184034 bus1=p1udm3807.1.2 bus2=p1ulv40363.1.2 switch=n enabled=y phases=2 Linecode=1P_UG_AL_1/0_Brenau_0_416_0_2_2_2_2

New Line.l(r:p1udm3807-p1udt1039lv) Units=km Length=0.0293421 bus1=p1udt1039lv.1.2 bus2=p1udm3807.1.2 switch=n enabled=y phases=2 Linecode=1P_UG_AL_1/0_Brenau_0_416_0_2_2_2_2

New Line.l(r:p1udt1040lv-p1ulv1061) Units=km Length=0.0254107 bus1=p1udt1040lv.1.2 bus2=p1ulv1061.1.2 switch=n enabled=y phases=2 Linecode=1P_UG_AL_1/0_Brenau_0_416_0_2_2_2_2

New Line.l(r:p1udt1040lv-p1ulv25756) Units=km Length=0.0428403 bus1=p1udt1040lv.1.2 bus2=p1ulv25756.1.2 switch=n enabled=y phases=2 Linecode=1P_UG_AL_1/0_Brenau_0_416_0_2_2_2_2

New Line.l(r:p1udt1660lv-p1ulv16104) Units=km Length=0.0294188 bus1=p1udt1660lv.1.2 bus2=p1ulv16104.1.2 switch=n enabled=y phases=2 Linecode=1P_OH_AL_4/0_Zuzara_0_416_0_2_2_2_2

New Line.l(r:p1udm6070-p1ulv1732) Units=km Length=0.017995300000000002 bus1=p1udm6070.1.2 bus2=p1ulv1732.1.2 switch=n enabled=y phases=2 Linecode=1P_OH_AL_2/0_Rucina_0_416_0_2_2_2_2

New Line.l(r:p1udm6070-p1udt1660lv) Units=km Length=0.0186778 bus1=p1udt1660lv.1.2 bus2=p1udm6070.1.2 switch=n enabled=y phases=2 Linecode=1P_OH_AL_2/0_Rucina_0_416_0_2_2_2_2

New Line.l(r:p1udt1676lv-p1ulv11131) Units=km Length=0.0124174 bus1=p1udt1676lv.1.2 bus2=p1ulv11131.1.2 switch=n enabled=y phases=2 Linecode=1P_UG_AL_1/0_Brenau_0_416_0_2_2_2_2

New Line.l(r:p1udm6123-p1ulv1752) Units=km Length=0.013553 bus1=p1udm6123.1.2 bus2=p1ulv1752.1.2 switch=n enabled=y phases=2 Linecode=1P_UG_AL_1/0_Brenau_0_416_0_2_2_2_2

New Line.l(r:p1udm6123-p1udt1676lv) Units=km Length=0.00949241 bus1=p1udt1676lv.1.2 bus2=p1udm6123.1.2 switch=n enabled=y phases=2 Linecode=1P_UG_AL_1/0_Brenau_0_416_0_2_2_2_2

New Line.l(r:p1udm6125-p1ulv57191) Units=km Length=0.0159366 bus1=p1udm6125.1.2 bus2=p1ulv57191.1.2 switch=n enabled=y phases=2 Linecode=1P_UG_AL_1/0_Brenau_0_416_0_2_2_2_2

New Line.l(r:p1udm6125-p1udt1676lv) Units=km Length=0.00950651 bus1=p1udt1676lv.1.2 bus2=p1udm6125.1.2 switch=n enabled=y phases=2 Linecode=1P_UG_AL_1/0_Brenau_0_416_0_2_2_2_2

New Line.l(r:p1udt1677lv-p1ulv1754) Units=km Length=0.0178525 bus1=p1udt1677lv.1.2 bus2=p1ulv1754.1.2 switch=n enabled=y phases=2 Linecode=1P_UG_AL_4/0_Sweetbriar_0_416_0_2_2_2_2

New Line.l(r:p1udm8055-p1ulv2345) Units=km Length=0.0175629 bus1=p1udm8055.1.2 bus2=p1ulv2345.1.2 switch=n enabled=y phases=2 Linecode=1P_UG_AL_1/0_Brenau_0_416_0_2_2_2_2

New Line.l(r:p1udm8055-p1udt2220lv) Units=km Length=0.0292381 bus1=p1udt2220lv.1.2 bus2=p1udm8055.1.2 switch=n enabled=y phases=2 Linecode=1P_UG_AL_1/0_Brenau_0_416_0_2_2_2_2

New Line.l(r:p1udm8057-p1ulv57173) Units=km Length=0.0176755 bus1=p1udm8057.1.2 bus2=p1ulv57173.1.2 switch=n enabled=y phases=2 Linecode=1P_UG_AL_1/0_Brenau_0_416_0_2_2_2_2

New Line.l(r:p1udm8056-p1ulv25099) Units=km Length=0.0255024 bus1=p1udm8056.1.2 bus2=p1ulv25099.1.2 switch=n enabled=y phases=2 Linecode=1P_UG_AL_1/0_Brenau_0_416_0_2_2_2_2

New Line.l(r:p1udm8056-p1udm8057) Units=km Length=0.0194875 bus1=p1udm8057.1.2 bus2=p1udm8056.1.2 switch=n enabled=y phases=2 Linecode=1P_UG_AL_1/0_Brenau_0_416_0_2_2_2_2

New Line.l(r:p1udm8057-p1udt2220lv) Units=km Length=0.00975051 bus1=p1udt2220lv.1.2 bus2=p1udm8057.1.2 switch=n enabled=y phases=2 Linecode=1P_UG_AL_1/0_Brenau_0_416_0_2_2_2_2

New Line.l(r:p1udt2223lv-p1ulv2348) Units=km Length=0.0153618 bus1=p1udt2223lv.1.2 bus2=p1ulv2348.1.2 switch=n enabled=y phases=2 Linecode=1P_UG_AL_1/0_Brenau_0_416_0_2_2_2_2

New Line.l(r:p1udm8062-p1ulv62704) Units=km Length=0.0156222 bus1=p1udm8062.1.2 bus2=p1ulv62704.1.2 switch=n enabled=y phases=2 Linecode=1P_UG_AL_1/0_Brenau_0_416_0_2_2_2_2

New Line.l(r:p1udm8062-p1udt2223lv) Units=km Length=0.00915264 bus1=p1udt2223lv.1.2 bus2=p1udm8062.1.2 switch=n enabled=y phases=2 Linecode=1P_UG_AL_1/0_Brenau_0_416_0_2_2_2_2

New Line.l(r:p1udm9993-p1ulv2990) Units=km Length=0.0142471 bus1=p1udm9993.1.2 bus2=p1ulv2990.1.2 switch=n enabled=y phases=2 Linecode=1P_UG_AL_1/0_Brenau_0_416_0_2_2_2_2

New Line.l(r:p1udm9993-p1ulv7419) Units=km Length=0.0154124 bus1=p1udm9993.1.2 bus2=p1ulv7419.1.2 switch=n enabled=y phases=2 Linecode=1P_UG_AL_1/0_Brenau_0_416_0_2_2_2_2

New Line.l(r:p1udm9993-p1udt2803lv) Units=km Length=0.00915264 bus1=p1udt2803lv.1.2 bus2=p1udm9993.1.2 switch=n enabled=y phases=2 Linecode=1P_UG_AL_4/0_Sweetbriar_0_416_0_2_2_2_2

New Line.l(r:p1udm9995-p1ulv23832) Units=km Length=0.0153743 bus1=p1udm9995.1.2 bus2=p1ulv23832.1.2 switch=n enabled=y phases=2 Linecode=1P_UG_AL_1/0_Brenau_0_416_0_2_2_2_2

New Line.l(r:p1udm9995-p1udt2803lv) Units=km Length=0.00916135 bus1=p1udt2803lv.1.2 bus2=p1udm9995.1.2 switch=n enabled=y phases=2 Linecode=1P_UG_AL_1/0_Brenau_0_416_0_2_2_2_2

New Line.l(r:p1udt3384lv-p1ulv17386) Units=km Length=0.0199186 bus1=p1udt3384lv.1.2 bus2=p1ulv17386.1.2 switch=n enabled=y phases=2 Linecode=1P_UG_AL_4/0_Sweetbriar_0_416_0_2_2_2_2

New Line.l(r:p1udm11969-p1ulv3636) Units=km Length=0.0122684 bus1=p1udm11969.1.2 bus2=p1ulv3636.1.2 switch=n enabled=y phases=2 Linecode=1P_UG_AL_4/0_Sweetbriar_0_416_0_2_2_2_2

New Line.l(r:p1udm11969-p1udt3384lv) Units=km Length=0.00593918 bus1=p1udt3384lv.1.2 bus2=p1udm11969.1.2 switch=n enabled=y phases=2 Linecode=1P_UG_AL_4/0_Sweetbriar_0_416_0_2_2_2_2

New Line.l(r:p1udt3398lv-p1ulv3651) Units=km Length=0.0096207 bus1=p1udt3398lv.1.2 bus2=p1ulv3651.1.2 switch=n enabled=y phases=2 Linecode=1P_OH_AL_2/0_Rucina_0_416_0_2_2_2_2

New Line.l(r:p1udt3887lv-p1ulv59575) Units=km Length=0.0156884 bus1=p1udt3887lv.1.2 bus2=p1ulv59575.1.2 switch=n enabled=y phases=2 Linecode=1P_OH_AL_2/0_Rucina_0_416_0_2_2_2_2

New Line.l(r:p1udm13703-p1ulv4241) Units=km Length=0.0152284 bus1=p1udm13703.1.2 bus2=p1ulv4241.1.2 switch=n enabled=y phases=2 Linecode=1P_OH_AL_2/0_Rucina_0_416_0_2_2_2_2

New Line.l(r:p1udm13703-p1udt3887lv) Units=km Length=0.0109248 bus1=p1udt3887lv.1.2 bus2=p1udm13703.1.2 switch=n enabled=y phases=2 Linecode=1P_OH_AL_2/0_Rucina_0_416_0_2_2_2_2

New Line.l(r:p1udm13704-p1ulv28914) Units=km Length=0.0165114 bus1=p1udm13704.1.2 bus2=p1ulv28914.1.2 switch=n enabled=y phases=2 Linecode=1P_OH_AL_2/0_Rucina_0_416_0_2_2_2_2

New Line.l(r:p1udm13704-p1udt3887lv) Units=km Length=0.0207167 bus1=p1udt3887lv.1.2 bus2=p1udm13704.1.2 switch=n enabled=y phases=2 Linecode=1P_OH_AL_2/0_Rucina_0_416_0_2_2_2_2

New Line.l(r:p1udt3888lv-p1ulv65239) Units=km Length=0.0376529 bus1=p1udt3888lv.1.2 bus2=p1ulv65239.1.2 switch=n enabled=y phases=2 Linecode=1P_OH_AL_4/0_Zuzara_0_416_0_2_2_2_2

New Line.l(r:p1udm13706-p1ulv4242) Units=km Length=0.0233472 bus1=p1udm13706.1.2 bus2=p1ulv4242.1.2 switch=n enabled=y phases=2 Linecode=1P_OH_AL_2/0_Rucina_0_416_0_2_2_2_2

New Line.l(r:p1udm13706-p1udt3888lv) Units=km Length=0.0147804 bus1=p1udt3888lv.1.2 bus2=p1udm13706.1.2 switch=n enabled=y phases=2 Linecode=1P_OH_AL_2/0_Rucina_0_416_0_2_2_2_2

New Line.l(r:p1udm13707-p1ulv43454) Units=km Length=0.0263521 bus1=p1udm13707.1.2 bus2=p1ulv43454.1.2 switch=n enabled=y phases=2 Linecode=1P_OH_AL_2/0_Rucina_0_416_0_2_2_2_2

New Line.l(r:p1udm13707-p1ulv48484) Units=km Length=0.0190546 bus1=p1udm13707.1.2 bus2=p1ulv48484.1.2 switch=n enabled=y phases=2 Linecode=1P_OH_AL_2/0_Rucina_0_416_0_2_2_2_2

New Line.l(r:p1udm13707-p1udt3888lv) Units=km Length=0.0162899 bus1=p1udt3888lv.1.2 bus2=p1udm13707.1.2 switch=n enabled=y phases=2 Linecode=1P_OH_AL_2/0_Rucina_0_416_0_2_2_2_2

New Line.l(r:p1udt3904lv-p1ulv4260) Units=km Length=0.0165496 bus1=p1udt3904lv.1.2 bus2=p1ulv4260.1.2 switch=n enabled=y phases=2 Linecode=1P_UG_AL_4/0_Sweetbriar_0_416_0_2_2_2_2

New Line.l(r:p1udm13762-p1ulv9916) Units=km Length=0.0314476 bus1=p1udm13762.1.2 bus2=p1ulv9916.1.2 switch=n enabled=y phases=2 Linecode=1P_UG_AL_1/0_Brenau_0_416_0_2_2_2_2

New Line.l(r:p1udm13762-p1udt3904lv) Units=km Length=0.00948072 bus1=p1udt3904lv.1.2 bus2=p1udm13762.1.2 switch=n enabled=y phases=2 Linecode=1P_UG_AL_1/0_Brenau_0_416_0_2_2_2_2

New Line.l(r:p1udm13763-p1ulv4261) Units=km Length=0.0151706 bus1=p1udm13763.1.2 bus2=p1ulv4261.1.2 switch=n enabled=y phases=2 Linecode=1P_UG_AL_4/0_Sweetbriar_0_416_0_2_2_2_2

New Line.l(r:p1udm13763-p1ulv62058) Units=km Length=0.0157104 bus1=p1udm13763.1.2 bus2=p1ulv62058.1.2 switch=n enabled=y phases=2 Linecode=1P_UG_AL_1/0_Brenau_0_416_0_2_2_2_2

New Line.l(r:p1udm13763-p1udt3905lv) Units=km Length=0.00939435 bus1=p1udt3905lv.1.2 bus2=p1udm13763.1.2 switch=n enabled=y phases=2 Linecode=1P_UG_AL_4/0_Sweetbriar_0_416_0_2_2_2_2

New Line.l(r:p1udm13764-p1ulv8046) Units=km Length=0.0144602 bus1=p1udm13764.1.2 bus2=p1ulv8046.1.2 switch=n enabled=y phases=2 Linecode=1P_UG_AL_1/0_Brenau_0_416_0_2_2_2_2

New Line.l(r:p1udm13764-p1udt3905lv) Units=km Length=0.0187791 bus1=p1udt3905lv.1.2 bus2=p1udm13764.1.2 switch=n enabled=y phases=2 Linecode=1P_UG_AL_1/0_Brenau_0_416_0_2_2_2_2

New Line.l(r:p1udt4405lv-p1ulv4871) Units=km Length=0.0209812 bus1=p1udt4405lv.1.2 bus2=p1ulv4871.1.2 switch=n enabled=y phases=2 Linecode=1P_UG_AL_2/0_Converse_0_416_0_2_2_2_2

New Line.l(r:p1udt4405lv-p1ulv49119) Units=km Length=0.0150604 bus1=p1udt4405lv.1.2 bus2=p1ulv49119.1.2 switch=n enabled=y phases=2 Linecode=1P_UG_AL_2/0_Converse_0_416_0_2_2_2_2

New Line.l(r:p1udm17064-p1ulv5481) Units=km Length=0.0339868 bus1=p1udm17064.1.2 bus2=p1ulv5481.1.2 switch=n enabled=y phases=2 Linecode=1P_OH_AL_4/0_Zuzara_0_416_0_2_2_2_2

New Line.l(r:p1udm17064-p1udt4880lv) Units=km Length=0.035381 bus1=p1udt4880lv.1.2 bus2=p1udm17064.1.2 switch=n enabled=y phases=2 Linecode=1P_OH_AL_4/0_Zuzara_0_416_0_2_2_2_2

New Line.l(r:p1udm17065-p1ulv5482) Units=km Length=0.0225091 bus1=p1udm17065.1.2 bus2=p1ulv5482.1.2 switch=n enabled=y phases=2 Linecode=1P_OH_AL_2/0_Rucina_0_416_0_2_2_2_2

New Line.l(r:p1udm17065-p1ulv51562) Units=km Length=0.0179421 bus1=p1udm17065.1.2 bus2=p1ulv51562.1.2 switch=n enabled=y phases=2 Linecode=1P_OH_AL_2/0_Rucina_0_416_0_2_2_2_2

New Line.l(r:p1udm17065-p1udt4880lv) Units=km Length=0.016772 bus1=p1udt4880lv.1.2 bus2=p1udm17065.1.2 switch=n enabled=y phases=2 Linecode=1P_OH_AL_2/0_Rucina_0_416_0_2_2_2_2

New Line.l(r:p1udt4898lv-p1ulv5504) Units=km Length=0.0194959 bus1=p1udt4898lv.1.2 bus2=p1ulv5504.1.2 switch=n enabled=y phases=2 Linecode=1P_OH_AL_2/0_Rucina_0_416_0_2_2_2_2

New Line.l(r:p1udt4898lv-p1ulv38451) Units=km Length=0.0173736 bus1=p1udt4898lv.1.2 bus2=p1ulv38451.1.2 switch=n enabled=y phases=2 Linecode=1P_OH_AL_2/0_Rucina_0_416_0_2_2_2_2

New Line.l(r:p1udm17122-p1ulv25123) Units=km Length=0.0173923 bus1=p1udm17122.1.2 bus2=p1ulv25123.1.2 switch=n enabled=y phases=2 Linecode=1P_OH_AL_2/0_Rucina_0_416_0_2_2_2_2

New Line.l(r:p1udm17122-p1udt4898lv) Units=km Length=0.0187116 bus1=p1udt4898lv.1.2 bus2=p1udm17122.1.2 switch=n enabled=y phases=2 Linecode=1P_OH_AL_2/0_Rucina_0_416_0_2_2_2_2

New Line.l(r:p1udt5397lv-p1ulv39059) Units=km Length=0.0155012 bus1=p1udt5397lv.1.2 bus2=p1ulv39059.1.2 switch=n enabled=y phases=2 Linecode=1P_UG_AL_1/0_Brenau_0_416_0_2_2_2_2

New Line.l(r:p1udm18851-p1ulv6131) Units=km Length=0.0148616 bus1=p1udm18851.1.2 bus2=p1ulv6131.1.2 switch=n enabled=y phases=2 Linecode=1P_UG_AL_1/0_Brenau_0_416_0_2_2_2_2

New Line.l(r:p1udm18851-p1udt5397lv) Units=km Length=0.00938953 bus1=p1udt5397lv.1.2 bus2=p1udm18851.1.2 switch=n enabled=y phases=2 Linecode=1P_UG_AL_1/0_Brenau_0_416_0_2_2_2_2

New Line.l(r:p1udm18852-p1ulv31428) Units=km Length=0.0147864 bus1=p1udm18852.1.2 bus2=p1ulv31428.1.2 switch=n enabled=y phases=2 Linecode=1P_UG_AL_1/0_Brenau_0_416_0_2_2_2_2

New Line.l(r:p1udm18852-p1udt5397lv) Units=km Length=0.00939435 bus1=p1udt5397lv.1.2 bus2=p1udm18852.1.2 switch=n enabled=y phases=2 Linecode=1P_UG_AL_1/0_Brenau_0_416_0_2_2_2_2

New Line.l(r:p1udt5410lv-p1ulv6148) Units=km Length=0.0144813 bus1=p1udt5410lv.1.2 bus2=p1ulv6148.1.2 switch=n enabled=y phases=2 Linecode=1P_UG_AL_4/0_Sweetbriar_0_416_0_2_2_2_2

New Line.l(r:p1udt5410lv-p1ulv12408) Units=km Length=0.0162732 bus1=p1udt5410lv.1.2 bus2=p1ulv12408.1.2 switch=n enabled=y phases=2 Linecode=1P_UG_AL_1/0_Brenau_0_416_0_2_2_2_2

New Line.l(r:p1udm18884-p1ulv11129) Units=km Length=0.0170062 bus1=p1udm18884.1.2 bus2=p1ulv11129.1.2 switch=n enabled=y phases=2 Linecode=1P_UG_AL_1/0_Brenau_0_416_0_2_2_2_2

New Line.l(r:p1udm18887-p1ulv51576) Units=km Length=0.0140892 bus1=p1udm18887.1.2 bus2=p1ulv51576.1.2 switch=n enabled=y phases=2 Linecode=1P_UG_AL_1/0_Brenau_0_416_0_2_2_2_2

New Line.l(r:p1udm18884-p1udm18887) Units=km Length=0.00950108 bus1=p1udm18884.1.2 bus2=p1udm18887.1.2 switch=n enabled=y phases=2 Linecode=1P_UG_AL_1/0_Brenau_0_416_0_2_2_2_2

New Line.l(r:p1udm18884-p1udt5410lv) Units=km Length=0.00949739 bus1=p1udt5410lv.1.2 bus2=p1udm18884.1.2 switch=n enabled=y phases=2 Linecode=1P_UG_AL_4/0_Sweetbriar_0_416_0_2_2_2_2

New Line.l(r:p1udm18886-p1ulv26385) Units=km Length=0.0154017 bus1=p1udm18886.1.2 bus2=p1ulv26385.1.2 switch=n enabled=y phases=2 Linecode=1P_UG_AL_1/0_Brenau_0_416_0_2_2_2_2

New Line.l(r:p1udm18886-p1udt5410lv) Units=km Length=0.0284859 bus1=p1udt5410lv.1.2 bus2=p1udm18886.1.2 switch=n enabled=y phases=2 Linecode=1P_UG_AL_1/0_Brenau_0_416_0_2_2_2_2

New Line.l(r:p1udt5412lv-p1ulv6150) Units=km Length=0.01002 bus1=p1udt5412lv.1.2 bus2=p1ulv6150.1.2 switch=n enabled=y phases=2 Linecode=1P_OH_AL_2/0_Rucina_0_416_0_2_2_2_2

New Line.l(r:p1udt5412lv-p1ulv16801) Units=km Length=0.027687000000000003 bus1=p1udt5412lv.1.2 bus2=p1ulv16801.1.2 switch=n enabled=y phases=2 Linecode=1P_OH_AL_4/0_Zuzara_0_416_0_2_2_2_2

New Line.l(r:p1udm18893-p1ulv41559) Units=km Length=0.006171910000000001 bus1=p1udm18893.1.2 bus2=p1ulv41559.1.2 switch=n enabled=y phases=2 Linecode=1P_OH_AL_2/0_Rucina_0_416_0_2_2_2_2

New Line.l(r:p1udm18893-p1udt5412lv) Units=km Length=0.0186 bus1=p1udt5412lv.1.2 bus2=p1udm18893.1.2 switch=n enabled=y phases=2 Linecode=1P_OH_AL_2/0_Rucina_0_416_0_2_2_2_2

New Line.l(r:p1udm18894-p1ulv64615) Units=km Length=0.0251133 bus1=p1udm18894.1.2 bus2=p1ulv64615.1.2 switch=n enabled=y phases=2 Linecode=1P_OH_AL_2/0_Rucina_0_416_0_2_2_2_2

New Line.l(r:p1udm18894-p1udt5412lv) Units=km Length=0.0198084 bus1=p1udt5412lv.1.2 bus2=p1udm18894.1.2 switch=n enabled=y phases=2 Linecode=1P_OH_AL_2/0_Rucina_0_416_0_2_2_2_2

New Line.l(r:p1udt5911lv-p1ulv6793) Units=km Length=0.0245691 bus1=p1udt5911lv.1.2 bus2=p1ulv6793.1.2 switch=n enabled=y phases=2 Linecode=1P_UG_AL_1/0_Brenau_0_416_0_2_2_2_2

New Line.l(r:p1udt5911lv-p1ulv41535) Units=km Length=0.0262016 bus1=p1udt5911lv.1.2 bus2=p1ulv41535.1.2 switch=n enabled=y phases=2 Linecode=1P_UG_AL_1/0_Brenau_0_416_0_2_2_2_2

New Line.l(r:p1udm20519-p1ulv52213) Units=km Length=0.0250338 bus1=p1udm20519.1.2 bus2=p1ulv52213.1.2 switch=n enabled=y phases=2 Linecode=1P_UG_AL_4/0_Sweetbriar_0_416_0_2_2_2_2

New Line.l(r:p1udm20519-p1udt5911lv) Units=km Length=0.00908562 bus1=p1udt5911lv.1.2 bus2=p1udm20519.1.2 switch=n enabled=y phases=2 Linecode=1P_UG_AL_4/0_Sweetbriar_0_416_0_2_2_2_2

New Line.l(r:p1udm20520-p1ulv59576) Units=km Length=0.0179345 bus1=p1udm20520.1.2 bus2=p1ulv59576.1.2 switch=n enabled=y phases=2 Linecode=1P_UG_AL_2/0_Converse_0_416_0_2_2_2_2

New Line.l(r:p1udm20520-p1udt5911lv) Units=km Length=0.04637000000000001 bus1=p1udt5911lv.1.2 bus2=p1udm20520.1.2 switch=n enabled=y phases=2 Linecode=1P_UG_AL_2/0_Converse_0_416_0_2_2_2_2

New Line.l(r:p1udt5929lv-p1ulv6817) Units=km Length=0.0201302 bus1=p1udt5929lv.1.2 bus2=p1ulv6817.1.2 switch=n enabled=y phases=2 Linecode=1P_OH_AL_2/0_Rucina_0_416_0_2_2_2_2

New Line.l(r:p1udt5929lv-p1ulv40362) Units=km Length=0.0219089 bus1=p1udt5929lv.1.2 bus2=p1ulv40362.1.2 switch=n enabled=y phases=2 Linecode=1P_OH_AL_2/0_Rucina_0_416_0_2_2_2_2

New Line.l(r:p1udm20580-p1ulv50976) Units=km Length=0.020753600000000004 bus1=p1udm20580.1.2 bus2=p1ulv50976.1.2 switch=n enabled=y phases=2 Linecode=1P_OH_AL_2/0_Rucina_0_416_0_2_2_2_2

New Line.l(r:p1udm20578-p1ulv21927) Units=km Length=0.0173478 bus1=p1udm20578.1.2 bus2=p1ulv21927.1.2 switch=n enabled=y phases=2 Linecode=1P_OH_AL_2/0_Rucina_0_416_0_2_2_2_2

New Line.l(r:p1udm20578-p1udm20580) Units=km Length=0.0147572 bus1=p1udm20580.1.2 bus2=p1udm20578.1.2 switch=n enabled=y phases=2 Linecode=1P_OH_AL_2/0_Rucina_0_416_0_2_2_2_2

New Line.l(r:p1udm20580-p1udt5929lv) Units=km Length=0.014760900000000002 bus1=p1udt5929lv.1.2 bus2=p1udm20580.1.2 switch=n enabled=y phases=2 Linecode=1P_OH_AL_2/0_Rucina_0_416_0_2_2_2_2

New Line.l(r:p1udm22068-p1ulv7415) Units=km Length=0.0199917 bus1=p1udm22068.1.2 bus2=p1ulv7415.1.2 switch=n enabled=y phases=2 Linecode=1P_UG_AL_4/0_Sweetbriar_0_416_0_2_2_2_2

New Line.l(r:p1udm22068-p1udt6383lv) Units=km Length=0.00947329 bus1=p1udt6383lv.1.2 bus2=p1udm22068.1.2 switch=n enabled=y phases=2 Linecode=1P_UG_AL_4/0_Sweetbriar_0_416_0_2_2_2_2

New Line.l(r:p1udm22069-p1ulv52212) Units=km Length=0.0233253 bus1=p1udm22069.1.2 bus2=p1ulv52212.1.2 switch=n enabled=y phases=2 Linecode=1P_UG_AL_1/0_Brenau_0_416_0_2_2_2_2

New Line.l(r:p1udm22069-p1udt6383lv) Units=km Length=0.0094693 bus1=p1udt6383lv.1.2 bus2=p1udm22069.1.2 switch=n enabled=y phases=2 Linecode=1P_UG_AL_1/0_Brenau_0_416_0_2_2_2_2

New Line.l(r:p1udm22071-p1ulv7417) Units=km Length=0.0155863 bus1=p1udm22071.1.2 bus2=p1ulv7417.1.2 switch=n enabled=y phases=2 Linecode=1P_OH_AL_2/0_Rucina_0_416_0_2_2_2_2

New Line.l(r:p1udm22071-p1ulv25100) Units=km Length=0.0541004 bus1=p1udm22071.1.2 bus2=p1ulv25100.1.2 switch=n enabled=y phases=2 Linecode=1P_OH_AL_4/0_Zuzara_0_416_0_2_2_2_2

New Line.l(r:p1udm22071-p1udt6385lv) Units=km Length=0.0162899 bus1=p1udt6385lv.1.2 bus2=p1udm22071.1.2 switch=n enabled=y phases=2 Linecode=1P_OH_AL_2/0_Rucina_0_416_0_2_2_2_2

New Line.l(r:p1udm22072-p1ulv7418) Units=km Length=0.0251396 bus1=p1udm22072.1.2 bus2=p1ulv7418.1.2 switch=n enabled=y phases=2 Linecode=1P_OH_AL_2/0_Rucina_0_416_0_2_2_2_2

New Line.l(r:p1udm22072-p1ulv11737) Units=km Length=0.0175825 bus1=p1udm22072.1.2 bus2=p1ulv11737.1.2 switch=n enabled=y phases=2 Linecode=1P_OH_AL_2/0_Rucina_0_416_0_2_2_2_2

New Line.l(r:p1udm22075-p1ulv47243) Units=km Length=0.0149135 bus1=p1udm22075.1.2 bus2=p1ulv47243.1.2 switch=n enabled=y phases=2 Linecode=1P_OH_AL_2/0_Rucina_0_416_0_2_2_2_2

New Line.l(r:p1udm22072-p1udm22075) Units=km Length=0.0162957 bus1=p1udm22072.1.2 bus2=p1udm22075.1.2 switch=n enabled=y phases=2 Linecode=1P_OH_AL_2/0_Rucina_0_416_0_2_2_2_2

New Line.l(r:p1udm22072-p1udt6385lv) Units=km Length=0.0162957 bus1=p1udt6385lv.1.2 bus2=p1udm22072.1.2 switch=n enabled=y phases=2 Linecode=1P_OH_AL_2/0_Rucina_0_416_0_2_0_2_2_2

New Line.l(r:p1udm22079-p1ulv7422) Units=km Length=0.0163748 bus1=p1udm22079.1.2 bus2=p1ulv7422.1.2 switch=n enabled=y phases=2 Linecode=1P_OH_AL_2/0_Rucina_0_416_0_2_2_2_2

New Line.l(r:p1udm22079-p1udt6388lv) Units=km Length=0.019485200000000005 bus1=p1udt6388lv.1.2 bus2=p1udm22079.1.2 switch=n enabled=y phases=2 Linecode=1P_OH_AL_2/0_Rucina_0_416_0_2_2_2_2

New Line.l(r:p1udm22080-p1ulv39675) Units=km Length=0.0232772 bus1=p1udm22080.1.2 bus2=p1ulv39675.1.2 switch=n enabled=y phases=2 Linecode=1P_OH_AL_2/0_Rucina_0_416_0_2_2_2_2

New Line.l(r:p1udm22080-p1udt6388lv) Units=km Length=0.0389654 bus1=p1udt6388lv.1.2 bus2=p1udm22080.1.2 switch=n enabled=y phases=2 Linecode=1P_OH_AL_4/0_Zuzara_0_416_0_2_2_2_2

New Line.l(r:p1udm22116-p1ulv7440) Units=km Length=0.0175308 bus1=p1udm22116.1.2 bus2=p1ulv7440.1.2 switch=n enabled=y phases=2 Linecode=1P_OH_AL_2/0_Rucina_0_416_0_2_2_2_2

New Line.l(r:p1udm22116-p1udt6400lv) Units=km Length=0.0100743 bus1=p1udt6400lv.1.2 bus2=p1udm22116.1.2 switch=n enabled=y phases=2 Linecode=1P_OH_AL_2/0_Rucina_0_416_0_2_2_2_2

New Line.l(r:p1udm22117-p1ulv30814) Units=km Length=0.014300100000000001 bus1=p1udm22117.1.2 bus2=p1ulv30814.1.2 switch=n enabled=y phases=2 Linecode=1P_OH_AL_2/0_Rucina_0_416_0_2_2_2_2

New Line.l(r:p1udm22117-p1ulv54788) Units=km Length=0.0161252 bus1=p1udm22117.1.2 bus2=p1ulv54788.1.2 switch=n enabled=y phases=2 Linecode=1P_OH_AL_2/0_Rucina_0_416_0_2_2_2_2

New Line.l(r:p1udm22117-p1udt6400lv) Units=km Length=0.0168093 bus1=p1udt6400lv.1.2 bus2=p1udm22117.1.2 switch=n enabled=y phases=2 Linecode=1P_OH_AL_2/0_Rucina_0_416_0_2_2_2_2

New Line.l(r:p1udt6836lv-p1ulv8048) Units=km Length=0.0151391 bus1=p1udt6836lv.1.2 bus2=p1ulv8048.1.2 switch=n enabled=y phases=2 Linecode=1P_UG_AL_1/0_Brenau_0_416_0_2_2_2_2

New Line.l(r:p1udt6836lv-p1ulv65260) Units=km Length=0.0119284 bus1=p1udt6836lv.1.2 bus2=p1ulv65260.1.2 switch=n enabled=y phases=2 Linecode=1P_UG_AL_1/0_Brenau_0_416_0_2_2_2_2

New Line.l(r:p1udm23576-p1ulv23204) Units=km Length=0.0153157 bus1=p1udm23576.1.2 bus2=p1ulv23204.1.2 switch=n enabled=y phases=2 Linecode=1P_UG_AL_4/0_Sweetbriar_0_416_0_2_2_2_2

New Line.l(r:p1udm23575-p1ulv10533) Units=km Length=0.0149402 bus1=p1udm23575.1.2 bus2=p1ulv10533.1.2 switch=n enabled=y phases=2 Linecode=1P_UG_AL_1/0_Brenau_0_416_0_2_2_2_2

New Line.l(r:p1udm23575-p1udm23576) Units=km Length=0.00938953 bus1=p1udm23576.1.2 bus2=p1udm23575.1.2 switch=n enabled=y phases=2 Linecode=1P_UG_AL_1/0_Brenau_0_416_0_2_2_2_2

New Line.l(r:p1udm23576-p1udt6836lv) Units=km Length=0.0187839 bus1=p1udt6836lv.1.2 bus2=p1udm23576.1.2 switch=n enabled=y phases=2 Linecode=1P_UG_AL_4/0_Sweetbriar_0_416_0_2_2_2_2

New Line.l(r:p1udm23577-p1ulv60807) Units=km Length=0.015192800000000001 bus1=p1udm23577.1.2 bus2=p1ulv60807.1.2 switch=n enabled=y phases=2 Linecode=1P_UG_AL_1/0_Brenau_0_416_0_2_2_2_2

New Line.l(r:p1udm23577-p1udt6836lv) Units=km Length=0.0283773 bus1=p1udt6836lv.1.2 bus2=p1udm23577.1.2 switch=n enabled=y phases=2 Linecode=1P_UG_AL_1/0_Brenau_0_416_0_2_2_2_2

New Line.l(r:p1udm23579-p1ulv8049) Units=km Length=0.017683 bus1=p1udm23579.1.2 bus2=p1ulv8049.1.2 switch=n enabled=y phases=2 Linecode=1P_UG_AL_2/0_Converse_0_416_0_2_2_2_2

New Line.l(r:p1udm23579-p1ulv30155) Units=km Length=0.015591600000000002 bus1=p1udm23579.1.2 bus2=p1ulv30155.1.2 switch=n enabled=y phases=2 Linecode=1P_UG_AL_1/0_Brenau_0_416_0_2_2_2_2

New Line.l(r:p1udm23579-p1udt6837lv) Units=km Length=0.00948558 bus1=p1udt6837lv.1.2 bus2=p1udm23579.1.2 switch=n enabled=y phases=2 Linecode=1P_UG_AL_4/0_Sweetbriar_0_416_0_2_2_2_2

New Line.l(r:p1udm23580-p1ulv21320) Units=km Length=0.0172097 bus1=p1udm23580.1.2 bus2=p1ulv21320.1.2 switch=n enabled=y phases=2 Linecode=1P_UG_AL_1/0_Brenau_0_416_0_2_2_2_2

New Line.l(r:p1udm23580-p1ulv50956) Units=km Length=0.0159605 bus1=p1udm23580.1.2 bus2=p1ulv50956.1.2 switch=n enabled=y phases=2 Linecode=1P_UG_AL_2/0_Converse_0_416_0_2_2_2_2

New Line.l(r:p1udm23580-p1udt6837lv) Units=km Length=0.00948072 bus1=p1udt6837lv.1.2 bus2=p1udm23580.1.2 switch=n enabled=y phases=2 Linecode=1P_UG_AL_4/0_Sweetbriar_0_416_0_2_2_2_2

New Line.l(r:p1udt7271lv-p1ulv23833) Units=km Length=0.013104 bus1=p1udt7271lv.1.2 bus2=p1ulv23833.1.2 switch=n enabled=y phases=2 Linecode=1P_UG_AL_1/0_Brenau_0_416_0_2_2_2_2

New Line.l(r:p1udm24933-p1ulv8659) Units=km Length=0.0215021 bus1=p1udm24933.1.2 bus2=p1ulv8659.1.2 switch=n enabled=y phases=2 Linecode=1P_UG_AL_4/0_Sweetbriar_0_416_0_2_2_2_2

New Line.l(r:p1udm24933-p1udt7271lv) Units=km Length=0.00908063 bus1=p1udt7271lv.1.2 bus2=p1udm24933.1.2 switch=n enabled=y phases=2 Linecode=1P_UG_AL_4/0_Sweetbriar_0_416_0_2_2_2_2

New Line.l(r:p1udm24935-p1ulv57174) Units=km Length=0.0164531 bus1=p1udm24935.1.2 bus2=p1ulv57174.1.2 switch=n enabled=y phases=2 Linecode=1P_UG_AL_2/0_Converse_0_416_0_2_2_2_2

New Line.l(r:p1udm24935-p1udt7271lv) Units=km Length=0.00908562 bus1=p1udt7271lv.1.2 bus2=p1udm24935.1.2 switch=n enabled=y phases=2 Linecode=1P_UG_AL_2/0_Converse_0_416_0_2_2_2_2

New Line.l(r:p1udm24936-p1ulv8660) Units=km Length=0.017157000000000002 bus1=p1udm24936.1.2 bus2=p1ulv8660.1.2 switch=n enabled=y phases=2 Linecode=1P_UG_AL_1/0_Brenau_0_416_0_2_2_2_2

New Line.l(r:p1udm24937-p1ulv12389) Units=km Length=0.0168668 bus1=p1udm24937.1.2 bus2=p1ulv12389.1.2 switch=n enabled=y phases=2 Linecode=1P_UG_AL_4/0_Sweetbriar_0_416_0_2_2_2_2

New Line.l(r:p1udm24936-p1udm24937) Units=km Length=0.00852716 bus1=p1udm24936.1.2 bus2=p1udm24937.1.2 switch=n enabled=y phases=2 Linecode=1P_UG_AL_4/0_Sweetbriar_0_416_0_2_2_2_2

New Line.l(r:p1udm24936-p1udt7272lv) Units=km Length=0.009050140000000002 bus1=p1udt7272lv.1.2 bus2=p1udm24936.1.2 switch=n enabled=y phases=2 Linecode=1P_UG_AL_4/0_Sweetbriar_0_416_0_2_2_2_2

New Line.l(r:p1udm24938-p1ulv12993) Units=km Length=0.0173322 bus1=p1udm24938.1.2 bus2=p1ulv12993.1.2 switch=n enabled=y phases=2 Linecode=1P_UG_AL_1/0_Brenau_0_416_0_2_2_2_2

New Line.l(r:p1udm24938-p1udt7272lv) Units=km Length=0.009044100000000001 bus1=p1udt7272lv.1.2 bus2=p1udm24938.1.2 switch=n enabled=y phases=2 Linecode=1P_UG_AL_1/0_Brenau_0_416_0_2_2_2_2

New Line.l(r:p1udt7281lv-p1ulv8672) Units=km Length=0.0164804 bus1=p1udt7281lv.1.2 bus2=p1ulv8672.1.2 switch=n enabled=y phases=2 Linecode=1P_UG_AL_1/0_Brenau_0_416_0_2_2_2_2

New Line.l(r:p1udt7281lv-p1ulv28311) Units=km Length=0.0177169 bus1=p1udt7281lv.1.2 bus2=p1ulv28311.1.2 switch=n enabled=y phases=2 Linecode=1P_UG_AL_1/0_Brenau_0_416_0_2_2_2_2

New Line.l(r:p1udm24970-p1ulv21925) Units=km Length=0.0121937 bus1=p1udm24970.1.2 bus2=p1ulv21925.1.2 switch=n enabled=y phases=2 Linecode=1P_UG_AL_1/0_Brenau_0_416_0_2_2_2_2

New Line.l(r:p1udm24970-p1udt7281lv) Units=km Length=0.00930789 bus1=p1udt7281lv.1.2 bus2=p1udm24970.1.2 switch=n enabled=y phases=2 Linecode=1P_UG_AL_1/0_Brenau_0_416_0_2_2_2_2

New Line.l(r:p1udm24973-p1ulv11132) Units=km Length=0.017555800000000003 bus1=p1udm24973.1.2 bus2=p1ulv11132.1.2 switch=n enabled=y phases=2 Linecode=1P_UG_AL_1/0_Brenau_0_416_0_2_2_2_2

New Line.l(r:p1udm24973-p1ulv61449) Units=km Length=0.0126833 bus1=p1udm24973.1.2 bus2=p1ulv61449.1.2 switch=n enabled=y phases=2 Linecode=1P_UG_AL_1/0_Brenau_0_416_0_2_2_2_2

New Line.l(r:p1udm24972-p1ulv8673) Units=km Length=0.0168544 bus1=p1udm24972.1.2 bus2=p1ulv8673.1.2 switch=n enabled=y phases=2 Linecode=1P_UG_AL_1/0_Brenau_0_416_0_2_2_2_2

New Line.l(r:p1udm24972-p1udm24973) Units=km Length=0.0077847 bus1=p1udm24973.1.2 bus2=p1udm24972.1.2 switch=n enabled=y phases=2 Linecode=1P_UG_AL_1/0_Brenau_0_416_0_2_2_2_2

New Line.l(r:p1udm24973-p1udt7282lv) Units=km Length=0.0077847 bus1=p1udt7282lv.1.2 bus2=p1udm24973.1.2 switch=n enabled=y phases=2 Linecode=1P_UG_AL_4/0_Sweetbriar_0_416_0_2_2_2_2
