New Load.load_p5ulv238 conn=wye bus1=p5ulv238.1.2.3 kV=0.48 Vminpu=0.8 Vmaxpu=1.2 model=1 kW=30.7703 kvar=6.248175905306502 Phases=3

New Load.load_p5ulv309 conn=wye bus1=p5ulv309.1.2 kV=0.2080002494301389 Vminpu=0.8 Vmaxpu=1.2 model=1 kW=5.460050000000001 kvar=1.7907536337481187 Phases=2

New Load.load_p5ulv443 conn=wye bus1=p5ulv443.1.2 kV=0.2080002494301389 Vminpu=0.8 Vmaxpu=1.2 model=1 kW=7.51008 kvar=2.4711078946694403 Phases=2

New Load.load_p5ulv530 conn=wye bus1=p5ulv530.1.2.3 kV=0.48 Vminpu=0.8 Vmaxpu=1.2 model=1 kW=140.881 kvar=46.305345421703414 Phases=3

New Load.load_p5ulv999 conn=wye bus1=p5ulv999.1.2.3 kV=0.48 Vminpu=0.8 Vmaxpu=1.2 model=1 kW=60.7606 kvar=19.97104344113083 Phases=3

New Load.load_p5ulv1176 conn=wye bus1=p5ulv1176.1.2.3 kV=0.48 Vminpu=0.8 Vmaxpu=1.2 model=1 kW=51.130499999999984 kvar=16.80578263984786 Phases=3

New Load.load_p5ulv1177 conn=wye bus1=p5ulv1177.1.2 kV=0.2080002494301389 Vminpu=0.8 Vmaxpu=1.2 model=1 kW=5.04005 kvar=1.0207856490641993 Phases=2

New Load.load_p5ulv1178 conn=wye bus1=p5ulv1178.1.2 kV=0.2080002494301389 Vminpu=0.8 Vmaxpu=1.2 model=1 kW=14.180100000000001 kvar=2.879392113656244 Phases=2

New Load.load_p5ulv1893 conn=wye bus1=p5ulv1893.1.2 kV=0.2080002494301389 Vminpu=0.8 Vmaxpu=1.2 model=1 kW=12.6501 kvar=2.5687123628862176 Phases=2

New Load.load_p5ulv1896 conn=wye bus1=p5ulv1896.1.2 kV=0.2080002494301389 Vminpu=0.8 Vmaxpu=1.2 model=1 kW=4.38004 kvar=0.8894050559233643 Phases=2

New Load.load_p5ulv2834 conn=wye bus1=p5ulv2834.1.2.3 kV=0.48 Vminpu=0.8 Vmaxpu=1.2 model=1 kW=30.5003 kvar=6.19335006693532 Phases=3

New Load.load_p5ulv2835 conn=wye bus1=p5ulv2835.1.2.3 kV=0.48 Vminpu=0.8 Vmaxpu=1.2 model=1 kW=33.1203 kvar=6.725363757796413 Phases=3

New Load.load_p5ulv2838 conn=wye bus1=p5ulv2838.1.2.3 kV=0.48 Vminpu=0.8 Vmaxpu=1.2 model=1 kW=200.132 kvar=65.78020733765625 Phases=3

New Load.load_p5ulv2847 conn=wye bus1=p5ulv2847.1.2.3 kV=0.48 Vminpu=0.8 Vmaxpu=1.2 model=1 kW=68.7907 kvar=22.610409674127624 Phases=3

New Load.load_p5ulv2848 conn=wye bus1=p5ulv2848.1.2 kV=0.2080002494301389 Vminpu=0.8 Vmaxpu=1.2 model=1 kW=1.27001 kvar=0.42012995976167555 Phases=2

New Load.load_p5ulv3038 conn=wye bus1=p5ulv3038.1.2.3 kV=0.48 Vminpu=0.8 Vmaxpu=1.2 model=1 kW=20.4002 kvar=4.142437288665814 Phases=3

New Load.load_p5umv9 conn=wye bus1=p5umv9.1.2.3 kV=12.47 Vminpu=0.8 Vmaxpu=1.2 model=1 kW=858.6490000000001 kvar=282.22427822772573 Phases=3

New Load.load_p5ulv3245 conn=wye bus1=p5ulv3245.1.2.3 kV=0.48 Vminpu=0.8 Vmaxpu=1.2 model=1 kW=52.9505 kvar=17.403987711273395 Phases=3

New Load.load_p5ulv3610 conn=wye bus1=p5ulv3610.1.2.3 kV=0.48 Vminpu=0.8 Vmaxpu=1.2 model=1 kW=43.5604 kvar=8.84531648068148 Phases=3

New Load.load_p5ulv3792 conn=wye bus1=p5ulv3792.1.2 kV=0.2080002494301389 Vminpu=0.8 Vmaxpu=1.2 model=1 kW=0.480005 kvar=0.15997349599625266 Phases=2

New Load.load_p5ulv4131 conn=wye bus1=p5ulv4131.1.2 kV=0.2080002494301389 Vminpu=0.8 Vmaxpu=1.2 model=1 kW=0.09000090000000001 kvar=0.019994565688274832 Phases=2

New Load.load_p5ulv4326 conn=wye bus1=p5ulv4326.1.2.3 kV=0.48 Vminpu=0.8 Vmaxpu=1.2 model=1 kW=21.7302 kvar=4.412505307309041 Phases=3

New Load.load_p5ulv4498 conn=wye bus1=p5ulv4498.1.2 kV=0.2080002494301389 Vminpu=0.8 Vmaxpu=1.2 model=1 kW=2.64003 kvar=0.5402110512846091 Phases=2

New Load.load_p5ulv4680 conn=wye bus1=p5ulv4680.1.2.3 kV=0.48 Vminpu=0.8 Vmaxpu=1.2 model=1 kW=168.68200000000002 kvar=55.44309222978099 Phases=3

New Load.load_p5ulv4843 conn=wye bus1=p5ulv4843.1.2 kV=0.2080002494301389 Vminpu=0.8 Vmaxpu=1.2 model=1 kW=13.6501 kvar=2.771771023520222 Phases=2

New Load.load_p5ulv4852 conn=wye bus1=p5ulv4852.1.2.3 kV=0.48 Vminpu=0.8 Vmaxpu=1.2 model=1 kW=32.5803 kvar=10.708626751958915 Phases=3

New Load.load_p5ulv4853 conn=wye bus1=p5ulv4853.1.2.3 kV=0.48 Vminpu=0.8 Vmaxpu=1.2 model=1 kW=65.63070000000002 kvar=13.326882038472148 Phases=3

New Load.load_p5ulv4854 conn=wye bus1=p5ulv4854.1.2.3 kV=0.48 Vminpu=0.8 Vmaxpu=1.2 model=1 kW=96.551 kvar=31.734779039124415 Phases=3

New Load.load_p5ulv4855 conn=wye bus1=p5ulv4855.1.2 kV=0.2080002494301389 Vminpu=0.8 Vmaxpu=1.2 model=1 kW=2.79003 kvar=0.9200052877067627 Phases=2

New Load.load_p5ulv4856 conn=wye bus1=p5ulv4856.1.2.3 kV=0.48 Vminpu=0.8 Vmaxpu=1.2 model=1 kW=41.270399999999995 kvar=13.564924494373754 Phases=3

New Load.load_p5ulv5046 conn=wye bus1=p5ulv5046.1.2.3 kV=0.48 Vminpu=0.8 Vmaxpu=1.2 model=1 kW=115.461 kvar=37.95019546805671 Phases=3

New Load.load_p5ulv5243 conn=wye bus1=p5ulv5243.1.2.3 kV=0.48 Vminpu=0.8 Vmaxpu=1.2 model=1 kW=19.9302 kvar=6.550739953035778 Phases=3

New Load.load_p5ulv5424 conn=wye bus1=p5ulv5424.1.2.3 kV=0.48 Vminpu=0.8 Vmaxpu=1.2 model=1 kW=26.070299999999996 kvar=8.568893227244516 Phases=3

New Load.load_p5umv18 conn=wye bus1=p5umv18.1.2.3 kV=12.47 Vminpu=0.8 Vmaxpu=1.2 model=1 kW=999.3400000000001 kvar=328.4671736694451 Phases=3

New Load.load_p5ulv5441 conn=wye bus1=p5ulv5441.1.2.3 kV=0.48 Vminpu=0.8 Vmaxpu=1.2 model=1 kW=335.833 kvar=110.38296909453315 Phases=3

New Load.load_p5ulv5508 conn=wye bus1=p5ulv5508.1.2.3 kV=0.48 Vminpu=0.8 Vmaxpu=1.2 model=1 kW=20.2302 kvar=6.649345184589438 Phases=3

New Load.load_p5ulv5627 conn=wye bus1=p5ulv5627.1.2.3 kV=0.48 Vminpu=0.8 Vmaxpu=1.2 model=1 kW=23.800199999999997 kvar=4.832836734821429 Phases=3

New Load.load_p5ulv5995 conn=wye bus1=p5ulv5995.1.2.3 kV=0.48 Vminpu=0.8 Vmaxpu=1.2 model=1 kW=55.61059999999999 kvar=18.278320299459686 Phases=3

New Load.load_p5ulv5996 conn=wye bus1=p5ulv5996.1.2.3 kV=0.48 Vminpu=0.8 Vmaxpu=1.2 model=1 kW=151.452 kvar=49.77986509754918 Phases=3

New Load.load_p5ulv5997 conn=wye bus1=p5ulv5997.1.2.3 kV=0.48 Vminpu=0.8 Vmaxpu=1.2 model=1 kW=19.880200000000002 kvar=4.036846785136132 Phases=3

New Load.load_p5ulv6184 conn=wye bus1=p5ulv6184.1.2.3 kV=0.48 Vminpu=0.8 Vmaxpu=1.2 model=1 kW=35.8204 kvar=11.773596121148948 Phases=3

New Load.load_p5ulv6185 conn=wye bus1=p5ulv6185.1.2 kV=0.2080002494301389 Vminpu=0.8 Vmaxpu=1.2 model=1 kW=8.49008 kvar=1.7195368743181074 Phases=2

New Load.load_p5ulv6186 conn=wye bus1=p5ulv6186.1.2.3 kV=0.48 Vminpu=0.8 Vmaxpu=1.2 model=1 kW=32.4403 kvar=6.58728386856529 Phases=3

New Load.load_p5ulv6187 conn=wye bus1=p5ulv6187.1.2 kV=0.2080002494301389 Vminpu=0.8 Vmaxpu=1.2 model=1 kW=10.4201 kvar=2.121337580189199 Phases=2

New Load.load_p5ulv6188 conn=wye bus1=p5ulv6188.1.2 kV=0.2080002494301389 Vminpu=0.8 Vmaxpu=1.2 model=1 kW=9.760100000000001 kvar=1.9818728336539455 Phases=2

New Load.load_p5ulv6201 conn=wye bus1=p5ulv6201.1.2.3 kV=0.48 Vminpu=0.8 Vmaxpu=1.2 model=1 kW=99.361 kvar=32.65838137467702 Phases=3

New Load.load_p5ulv6202 conn=wye bus1=p5ulv6202.1.2.3 kV=0.48 Vminpu=0.8 Vmaxpu=1.2 model=1 kW=36.61039999999999 kvar=12.03325656424025 Phases=3

New Load.load_p5ulv6203 conn=wye bus1=p5ulv6203.1.2.3 kV=0.48 Vminpu=0.8 Vmaxpu=1.2 model=1 kW=55.0906 kvar=11.186623449523678 Phases=3

New Load.load_p5ulv6204 conn=wye bus1=p5ulv6204.1.2.3 kV=0.48 Vminpu=0.8 Vmaxpu=1.2 model=1 kW=33.2203 kvar=6.745669623859813 Phases=3

New Load.load_p5ulv6205 conn=wye bus1=p5ulv6205.1.2.3 kV=0.48 Vminpu=0.8 Vmaxpu=1.2 model=1 kW=46.7505 kvar=9.493093913970016 Phases=3

New Load.load_p5ulv6206 conn=wye bus1=p5ulv6206.1.2.3 kV=0.48 Vminpu=0.8 Vmaxpu=1.2 model=1 kW=38.7904 kvar=7.8767266694572795 Phases=3

New Load.load_p5ulv6207 conn=wye bus1=p5ulv6206.1.2.3 kV=0.48 Vminpu=0.8 Vmaxpu=1.2 model=1 kW=53.0705 kvar=10.776424649176924 Phases=3

New Load.load_p5ulv6208 conn=wye bus1=p5ulv6208.1.2 kV=0.2080002494301389 Vminpu=0.8 Vmaxpu=1.2 model=1 kW=4.85005 kvar=1.5906895836778168 Phases=2

New Load.load_p5ulv6209 conn=wye bus1=p5ulv6209.1.2.3 kV=0.48 Vminpu=0.8 Vmaxpu=1.2 model=1 kW=32.830299999999994 kvar=6.666476746212551 Phases=3

New Load.load_p5ulv6549 conn=wye bus1=p5ulv6549.1.2 kV=0.2080002494301389 Vminpu=0.8 Vmaxpu=1.2 model=1 kW=4.37004 kvar=1.4394617812713364 Phases=2

New Load.load_p5ulv6566 conn=wye bus1=p5ulv6566.1.2.3 kV=0.48 Vminpu=0.8 Vmaxpu=1.2 model=1 kW=38.6704 kvar=12.710345820908708 Phases=3

New Load.load_p5ulv6567 conn=wye bus1=p5ulv6567.1.2 kV=0.2080002494301389 Vminpu=0.8 Vmaxpu=1.2 model=1 kW=7.72008 kvar=1.5716639788550044 Phases=2

New Load.load_p5ulv6746 conn=wye bus1=p5ulv6746.1.2.3 kV=0.48 Vminpu=0.8 Vmaxpu=1.2 model=1 kW=69.3207 kvar=22.784612249872414 Phases=3

New Load.load_p5ulv6747 conn=wye bus1=p5ulv6747.1.2 kV=0.2080002494301389 Vminpu=0.8 Vmaxpu=1.2 model=1 kW=17.5302 kvar=5.761898100606507 Phases=2

New Load.load_p5ulv6764 conn=wye bus1=p5ulv6764.1.2.3 kV=0.48 Vminpu=0.8 Vmaxpu=1.2 model=1 kW=167.002 kvar=33.91120244319999 Phases=3

New Load.load_p5ulv7101 conn=wye bus1=p5ulv7101.1.2.3 kV=0.48 Vminpu=0.8 Vmaxpu=1.2 model=1 kW=51.2205 kvar=16.835364209313962 Phases=3

New Load.load_p5ulv7277 conn=wye bus1=p5ulv7277.1.2 kV=0.2080002494301389 Vminpu=0.8 Vmaxpu=1.2 model=1 kW=13.170100000000001 kvar=4.3288025336161455 Phases=2

New Load.load_p5ulv7278 conn=wye bus1=p5ulv7278.1.2.3 kV=0.48 Vminpu=0.8 Vmaxpu=1.2 model=1 kW=64.3406 kvar=21.14773253767116 Phases=3

New Load.load_p5ulv7290 conn=wye bus1=p5ulv7290.1.2.3 kV=0.48 Vminpu=0.8 Vmaxpu=1.2 model=1 kW=152.652 kvar=50.17428602376381 Phases=3

New Load.load_p5ulv7478 conn=wye bus1=p5ulv7478.1.2 kV=0.2080002494301389 Vminpu=0.8 Vmaxpu=1.2 model=1 kW=9.09009 kvar=2.9909925276769 Phases=2

New Load.load_p5ulv7679 conn=wye bus1=p5ulv7679.1.2.3 kV=0.48 Vminpu=0.8 Vmaxpu=1.2 model=1 kW=24.470200000000002 kvar=4.968886037446212 Phases=3

New Load.load_p5ulv7680 conn=wye bus1=p5ulv7680.1.2 kV=0.2080002494301389 Vminpu=0.8 Vmaxpu=1.2 model=1 kW=11.2001 kvar=2.268410303089045 Phases=2

New Load.load_p5ulv7681 conn=wye bus1=p5ulv7681.1.2.3 kV=0.48 Vminpu=0.8 Vmaxpu=1.2 model=1 kW=46.8905 kvar=9.52152212645878 Phases=3

New Load.load_p5ulv7682 conn=wye bus1=p5ulv7682.1.2.3 kV=0.48 Vminpu=0.8 Vmaxpu=1.2 model=1 kW=21.0802 kvar=4.280517177896938 Phases=3

New Load.load_p5ulv7683 conn=wye bus1=p5ulv7683.1.2.3 kV=0.48 Vminpu=0.8 Vmaxpu=1.2 model=1 kW=32.6303 kvar=6.625865014085751 Phases=3

New Load.load_p5ulv7839 conn=wye bus1=p5ulv7839.1.2.3 kV=0.48 Vminpu=0.8 Vmaxpu=1.2 model=1 kW=104.431 kvar=34.32480978793386 Phases=3

New Load.load_p5ulv7840 conn=wye bus1=p5ulv7840.1.2.3 kV=0.48 Vminpu=0.8 Vmaxpu=1.2 model=1 kW=42.8804 kvar=8.707236591450359 Phases=3

New Load.load_p5ulv7847 conn=wye bus1=p5ulv7847.1.2 kV=0.2080002494301389 Vminpu=0.8 Vmaxpu=1.2 model=1 kW=10.6901 kvar=2.170717388043569 Phases=2

New Load.load_p5ulv8212 conn=wye bus1=p5ulv8212.1.2 kV=0.2080002494301389 Vminpu=0.8 Vmaxpu=1.2 model=1 kW=18.0002 kvar=5.922764647730631 Phases=2

New Load.load_p5ulv8214 conn=wye bus1=p5ulv8214.1.2 kV=0.2080002494301389 Vminpu=0.8 Vmaxpu=1.2 model=1 kW=4.76005 kvar=0.9690572018099246 Phases=2

New Load.load_p5ulv8545 conn=wye bus1=p5ulv8545.1.2.3 kV=0.48 Vminpu=0.8 Vmaxpu=1.2 model=1 kW=30.900300000000005 kvar=6.274573531188922 Phases=3

New Load.load_p5ulv8559 conn=wye bus1=p5ulv8559.1.2 kV=0.2080002494301389 Vminpu=0.8 Vmaxpu=1.2 model=1 kW=1.34001 kvar=0.43996429721056973 Phases=2

New Load.load_p5ulv8560 conn=wye bus1=p5ulv8560.1.2 kV=0.2080002494301389 Vminpu=0.8 Vmaxpu=1.2 model=1 kW=4.80005 kvar=1.5794028092654198 Phases=2

New Load.load_p5ulv8561 conn=wye bus1=p5ulv8561u.1.2.3 kV=12.47 Vminpu=0.8 Vmaxpu=1.2 model=1 kW=232.93199999999996 kvar=76.56104598752293 Phases=3

New Load.load_p5ulv8562 conn=wye bus1=p5ulv8562.1.2.3 kV=0.48 Vminpu=0.8 Vmaxpu=1.2 model=1 kW=33.9603 kvar=11.162210817105745 Phases=3

New Load.load_p5ulv8563 conn=wye bus1=p5ulv8563.1.2 kV=0.2080002494301389 Vminpu=0.8 Vmaxpu=1.2 model=1 kW=6.71007 kvar=1.3590228589431081 Phases=2

New Load.load_p5ulv8983 conn=wye bus1=p5ulv8983.1.2.3 kV=0.48 Vminpu=0.8 Vmaxpu=1.2 model=1 kW=277.373 kvar=91.16809630577681 Phases=3

New Load.load_p5ulv8984 conn=wye bus1=p5ulv8984.1.2.3 kV=0.48 Vminpu=0.8 Vmaxpu=1.2 model=1 kW=124.971 kvar=41.0759813083077 Phases=3

New Load.load_p5ulv9356 conn=wye bus1=p5ulv9356.1.2.3 kV=0.48 Vminpu=0.8 Vmaxpu=1.2 model=1 kW=79.12079999999999 kvar=26.005749349035796 Phases=3

New Load.load_p5ulv9357 conn=wye bus1=p5ulv9357.1.2 kV=0.2080002494301389 Vminpu=0.8 Vmaxpu=1.2 model=1 kW=7.76008 kvar=2.5506149509163927 Phases=2

New Load.load_p5ulv9724 conn=wye bus1=p5ulv9724.1.2.3 kV=0.48 Vminpu=0.8 Vmaxpu=1.2 model=1 kW=20.490200000000005 kvar=6.727529229411734 Phases=3

New Load.load_p5ulv9877 conn=wye bus1=p5ulv9877.1.2 kV=0.2080002494301389 Vminpu=0.8 Vmaxpu=1.2 model=1 kW=0.950009 kvar=0.30988669297827337 Phases=2

New Load.load_p5ulv9878 conn=wye bus1=p5ulv9878.1.2.3 kV=0.48 Vminpu=0.8 Vmaxpu=1.2 model=1 kW=64.2806 kvar=21.128011491360432 Phases=3

New Load.load_p5ulv10078 conn=wye bus1=p5ulv10078.1.2.3 kV=0.48 Vminpu=0.8 Vmaxpu=1.2 model=1 kW=36.1304 kvar=7.336590632170828 Phases=3

New Load.load_p5ulv10079 conn=wye bus1=p5ulv10079.1.2 kV=0.2080002494301389 Vminpu=0.8 Vmaxpu=1.2 model=1 kW=6.29006 kvar=2.069673948073051 Phases=2

New Load.load_p5ulv10081 conn=wye bus1=p5ulv10081.1.2.3 kV=0.48 Vminpu=0.8 Vmaxpu=1.2 model=1 kW=32.960300000000004 kvar=6.692874372094972 Phases=3

New Load.load_p5ulv10094 conn=wye bus1=p5ulv10094.1.2 kV=0.2080002494301389 Vminpu=0.8 Vmaxpu=1.2 model=1 kW=14.4701 kvar=2.938279125240106 Phases=2

New Load.load_p5ulv10095 conn=wye bus1=p5ulv10095.1.2.3 kV=0.48 Vminpu=0.8 Vmaxpu=1.2 model=1 kW=30.480300000000003 kvar=10.018390131083303 Phases=3

New Load.load_p5ulv10273 conn=wye bus1=p5ulv10273.1.2 kV=0.2080002494301389 Vminpu=0.8 Vmaxpu=1.2 model=1 kW=17.930200000000003 kvar=5.88700669535672 Phases=2

New Load.load_p5ulv10348 conn=wye bus1=p5ulv10348.1.2.3 kV=0.48 Vminpu=0.8 Vmaxpu=1.2 model=1 kW=159.942 kvar=52.57039315051773 Phases=3

New Load.load_p5ulv10455 conn=wye bus1=p5ulv10455.1.2 kV=0.2080002494301389 Vminpu=0.8 Vmaxpu=1.2 model=1 kW=6.64007 kvar=1.3483237207160328 Phases=2

New Load.load_p5ulv10456 conn=wye bus1=p5ulv10456.1.2 kV=0.2080002494301389 Vminpu=0.8 Vmaxpu=1.2 model=1 kW=19.3702 kvar=3.93328686821279 Phases=2

New Load.load_p5ulv10956 conn=wye bus1=p5ulv10956.1.2.3 kV=0.48 Vminpu=0.8 Vmaxpu=1.2 model=1 kW=31.3703 kvar=10.31091898469249 Phases=3

New Load.load_p5ulv11440 conn=wye bus1=p5ulv11440.1.2 kV=0.2080002494301389 Vminpu=0.8 Vmaxpu=1.2 model=1 kW=2.7800300000000004 kvar=0.909799591024997 Phases=2

New Load.load_p5ulv11457 conn=wye bus1=p5ulv11457.1.2.3 kV=0.48 Vminpu=0.8 Vmaxpu=1.2 model=1 kW=39.3904 kvar=12.94699837663749 Phases=3

New Load.load_p5ulv11535 conn=wye bus1=p5ulv11535.1.2 kV=0.2080002494301389 Vminpu=0.8 Vmaxpu=1.2 model=1 kW=0.620006 kvar=0.20002114980484142 Phases=2

New Load.load_p5ulv11625 conn=wye bus1=p5ulv11625.1.2.3 kV=0.48 Vminpu=0.8 Vmaxpu=1.2 model=1 kW=38.49040000000001 kvar=7.81580907126708 Phases=3

New Load.load_p5ulv11809 conn=wye bus1=p5ulv11809.1.2 kV=0.2080002494301389 Vminpu=0.8 Vmaxpu=1.2 model=1 kW=8.81009 kvar=2.889479158826011 Phases=2

New Load.load_p5ulv11810 conn=wye bus1=p5ulv11810.1.2.3 kV=0.48 Vminpu=0.8 Vmaxpu=1.2 model=1 kW=27.850299999999997 kvar=9.153950934462891 Phases=3

New Load.load_p5ulv11811 conn=wye bus1=p5ulv11811.1.2.3 kV=0.48 Vminpu=0.8 Vmaxpu=1.2 model=1 kW=44.3604 kvar=14.58055837937644 Phases=3

New Load.load_p5ulv11812 conn=wye bus1=p5ulv11812.1.2.3 kV=0.48 Vminpu=0.8 Vmaxpu=1.2 model=1 kW=38.0704 kvar=12.513135357801392 Phases=3

New Load.load_p5ulv11828 conn=wye bus1=p5ulv11828.1.2 kV=0.2080002494301389 Vminpu=0.8 Vmaxpu=1.2 model=1 kW=4.35004 kvar=1.429789004892262 Phases=2

New Load.load_p5ulv11994 conn=wye bus1=p5ulv11994.1.2.3 kV=0.48 Vminpu=0.8 Vmaxpu=1.2 model=1 kW=63.11059999999999 kvar=20.74345108830116 Phases=3

New Load.load_p5ulv12175 conn=wye bus1=p5ulv12175.1.2 kV=0.2080002494301389 Vminpu=0.8 Vmaxpu=1.2 model=1 kW=4.91005 kvar=1.6103680148322725 Phases=2

New Load.load_p5ulv12753 conn=wye bus1=p5ulv12753.1.2.3 kV=0.48 Vminpu=0.8 Vmaxpu=1.2 model=1 kW=44.6904 kvar=9.074772767197905 Phases=3

New Load.load_p5ulv12754 conn=wye bus1=p5ulv12754.1.2 kV=0.2080002494301389 Vminpu=0.8 Vmaxpu=1.2 model=1 kW=11.760100000000001 kvar=2.387990154921954 Phases=2

New Load.load_p5ulv12755 conn=wye bus1=p5ulv12755.1.2.3 kV=0.48 Vminpu=0.8 Vmaxpu=1.2 model=1 kW=21.3702 kvar=4.3394041894808 Phases=3

New Load.load_p5ulv12756 conn=wye bus1=p5ulv12756.1.2 kV=0.2080002494301389 Vminpu=0.8 Vmaxpu=1.2 model=1 kW=10.4601 kvar=2.118534531954332 Phases=2

New Load.load_p5ulv12757 conn=wye bus1=p5ulv12757.1.2 kV=0.2080002494301389 Vminpu=0.8 Vmaxpu=1.2 model=1 kW=6.92007 kvar=1.4015551723732291 Phases=2

New Load.load_p5ulv12758 conn=wye bus1=p5ulv12758.1.2.3 kV=0.48 Vminpu=0.8 Vmaxpu=1.2 model=1 kW=31.280300000000004 kvar=6.351735822229847 Phases=3

New Load.load_p5ulv12771 conn=wye bus1=p5ulv12771.1.2.3 kV=0.48 Vminpu=0.8 Vmaxpu=1.2 model=1 kW=52.5805 kvar=17.282374592357215 Phases=3

New Load.load_p5ulv12953 conn=wye bus1=p5ulv12953.1.2 kV=0.2080002494301389 Vminpu=0.8 Vmaxpu=1.2 model=1 kW=6.54007 kvar=2.1496170557571275 Phases=2

New Load.load_p5ulv12962 conn=wye bus1=p5ulv12962.1.2 kV=0.2080002494301389 Vminpu=0.8 Vmaxpu=1.2 model=1 kW=5.86006 kvar=1.1899359348349032 Phases=2

New Load.load_p5ulv13334 conn=wye bus1=p5ulv13334.1.2 kV=0.2080002494301389 Vminpu=0.8 Vmaxpu=1.2 model=1 kW=12.7401 kvar=2.586987642343278 Phases=2

New Load.load_p5ulv13335 conn=wye bus1=p5ulv13335.1.2 kV=0.2080002494301389 Vminpu=0.8 Vmaxpu=1.2 model=1 kW=2.26002 kvar=0.4600978261225126 Phases=2

New Load.load_p5ulv13336 conn=wye bus1=p5ulv13336.1.2.3 kV=0.48 Vminpu=0.8 Vmaxpu=1.2 model=1 kW=60.3406 kvar=19.83299611695571 Phases=3

New Load.load_p5ulv13700 conn=wye bus1=p5ulv13700.1.2 kV=0.2080002494301389 Vminpu=0.8 Vmaxpu=1.2 model=1 kW=7.81008 kvar=2.5698195420022025 Phases=2

New Load.load_p5ulv13720 conn=wye bus1=p5ulv13720.1.2.3 kV=0.48 Vminpu=0.8 Vmaxpu=1.2 model=1 kW=33.8203 kvar=6.867504820240216 Phases=3

New Load.load_p5ulv13889 conn=wye bus1=p5ulv13889.1.2 kV=0.2080002494301389 Vminpu=0.8 Vmaxpu=1.2 model=1 kW=2.39002 kvar=0.49029398470315966 Phases=2

New Load.load_p5ulv13890 conn=wye bus1=p5ulv13890.1.2 kV=0.2080002494301389 Vminpu=0.8 Vmaxpu=1.2 model=1 kW=9.200090000000001 kvar=1.8681579531122967 Phases=2

New Load.load_p5ulv14063 conn=wye bus1=p5ulv14063.1.2.3 kV=0.48 Vminpu=0.8 Vmaxpu=1.2 model=1 kW=104.86100000000002 kvar=34.466143953160774 Phases=3

New Load.load_p5ulv14064 conn=wye bus1=p5ulv14064.1.2 kV=0.2080002494301389 Vminpu=0.8 Vmaxpu=1.2 model=1 kW=7.7100800000000005 kvar=2.528704641255793 Phases=2

New Load.load_p5ulv14077 conn=wye bus1=p5ulv14077.1.2 kV=0.2080002494301389 Vminpu=0.8 Vmaxpu=1.2 model=1 kW=14.4601 kvar=2.9438060616782793 Phases=2

New Load.load_p5ulv14238 conn=wye bus1=p5ulv14238.1.2 kV=0.2080002494301389 Vminpu=0.8 Vmaxpu=1.2 model=1 kW=6.79007 kvar=1.3787825198111334 Phases=2

New Load.load_p5ulv14398 conn=wye bus1=p5ulv14398.1.2.3 kV=0.48 Vminpu=0.8 Vmaxpu=1.2 model=1 kW=24.640199999999997 kvar=8.098842088428224 Phases=3

New Load.load_p5ulv15099 conn=wye bus1=p5ulv15099.1.2.3 kV=0.48 Vminpu=0.8 Vmaxpu=1.2 model=1 kW=34.6403 kvar=11.385716008627375 Phases=3

New Load.load_p5ulv15100 conn=wye bus1=p5ulv15100.1.2 kV=0.2080002494301389 Vminpu=0.8 Vmaxpu=1.2 model=1 kW=10.9001 kvar=3.578820184942599 Phases=2

New Load.load_p5ulv15460 conn=wye bus1=p5ulv15460.1.2.3 kV=0.48 Vminpu=0.8 Vmaxpu=1.2 model=1 kW=24.840199999999996 kvar=5.044017741880793 Phases=3

New Load.load_p5ulv15473 conn=wye bus1=p5ulv15473.1.2.3 kV=0.48 Vminpu=0.8 Vmaxpu=1.2 model=1 kW=299.10300000000007 kvar=98.31040191131353 Phases=3

New Load.load_p5ulv15474 conn=wye bus1=p5ulv15474.1.2.3 kV=0.48 Vminpu=0.8 Vmaxpu=1.2 model=1 kW=234.452 kvar=77.06064582739482 Phases=3

New Load.load_p5ulv15695 conn=wye bus1=p5ulv15695.1.2 kV=0.2080002494301389 Vminpu=0.8 Vmaxpu=1.2 model=1 kW=6.76007 kvar=2.2195277995270604 Phases=2

New Load.load_p5ulv15863 conn=wye bus1=p5ulv15863.1.2.3 kV=0.48 Vminpu=0.8 Vmaxpu=1.2 model=1 kW=209.71200000000002 kvar=68.92900106526976 Phases=3

New Load.load_p5ulv15866 conn=wye bus1=p5ulv15866.1.2 kV=0.2080002494301389 Vminpu=0.8 Vmaxpu=1.2 model=1 kW=10.9701 kvar=2.2275738130210905 Phases=2

New Load.load_p5ulv16033 conn=wye bus1=p5ulv16033.1.2 kV=0.2080002494301389 Vminpu=0.8 Vmaxpu=1.2 model=1 kW=3.63004 kvar=0.7409012375272501 Phases=2

New Load.load_p5ulv16034 conn=wye bus1=p5ulv16034.1.2 kV=0.2080002494301389 Vminpu=0.8 Vmaxpu=1.2 model=1 kW=3.21003 kvar=0.6501428670480555 Phases=2

New Load.load_p5ulv16187 conn=wye bus1=p5ulv16187.1.2 kV=0.2080002494301389 Vminpu=0.8 Vmaxpu=1.2 model=1 kW=10.840100000000001 kvar=2.2011761871386697 Phases=2

New Load.load_p5ulv16381 conn=wye bus1=p5ulv16381.1.2.3 kV=0.48 Vminpu=0.8 Vmaxpu=1.2 model=1 kW=32.25030000000001 kvar=6.548702723044831 Phases=3

New Load.load_p5ulv16554 conn=wye bus1=p5ulv16554.1.2.3 kV=0.48 Vminpu=0.8 Vmaxpu=1.2 model=1 kW=74.24070000000002 kvar=15.075217106530923 Phases=3

New Load.load_p5ulv16555 conn=wye bus1=p5ulv16555.1.2 kV=0.2080002494301389 Vminpu=0.8 Vmaxpu=1.2 model=1 kW=17.1502 kvar=3.4824966416053003 Phases=2

New Load.load_p5umv53 conn=wye bus1=p5umv53.1.2.3 kV=12.47 Vminpu=0.8 Vmaxpu=1.2 model=1 kW=1357.72 kvar=446.260983283446 Phases=3

New Load.load_p5ulv16570 conn=wye bus1=p5ulv16570.1.2 kV=0.2080002494301389 Vminpu=0.8 Vmaxpu=1.2 model=1 kW=14.5601 kvar=2.956554404697166 Phases=2

New Load.load_p5ulv16571 conn=wye bus1=p5ulv16571.1.2.3 kV=0.48 Vminpu=0.8 Vmaxpu=1.2 model=1 kW=251.483 kvar=82.65846482269605 Phases=3

New Load.load_p5ulv16572 conn=wye bus1=p5ulv16572.1.2 kV=0.2080002494301389 Vminpu=0.8 Vmaxpu=1.2 model=1 kW=2.92003 kvar=0.9597674476454359 Phases=2

New Load.load_p5ulv16942 conn=wye bus1=p5ulv16942.1.2.3 kV=0.48 Vminpu=0.8 Vmaxpu=1.2 model=1 kW=22.7302 kvar=7.471055447536595 Phases=3

New Load.load_p5ulv17128 conn=wye bus1=p5ulv17128.1.2.3 kV=0.48 Vminpu=0.8 Vmaxpu=1.2 model=1 kW=22.110200000000003 kvar=7.2672713023257005 Phases=3

New Load.load_p5ulv17132 conn=wye bus1=p5ulv17132.1.2 kV=0.2080002494301389 Vminpu=0.8 Vmaxpu=1.2 model=1 kW=8.47008 kvar=1.7199231002628672 Phases=2

New Load.load_p5ulv17133 conn=wye bus1=p5ulv17133.1.2 kV=0.2080002494301389 Vminpu=0.8 Vmaxpu=1.2 model=1 kW=5.97006 kvar=1.9601445154923727 Phases=2

New Load.load_p5ulv17303 conn=wye bus1=p5ulv17303.1.2 kV=0.2080002494301389 Vminpu=0.8 Vmaxpu=1.2 model=1 kW=5.14005 kvar=1.6894527348246153 Phases=2

New Load.load_p5ulv17588 conn=wye bus1=p5ulv17588.1.2 kV=0.2080002494301389 Vminpu=0.8 Vmaxpu=1.2 model=1 kW=0.580006 kvar=0.1900205897867449 Phases=2

New Load.load_p5ulv17706 conn=wye bus1=p5ulv17706.1.2 kV=0.2080002494301389 Vminpu=0.8 Vmaxpu=1.2 model=1 kW=3.57004 kvar=1.1696104977573867 Phases=2

New Load.load_p5ulv17707 conn=wye bus1=p5ulv17707.1.2.3 kV=0.48 Vminpu=0.8 Vmaxpu=1.2 model=1 kW=113.821 kvar=37.411153535563386 Phases=3

New Load.load_p5ulv17708 conn=wye bus1=p5ulv17708.1.2 kV=0.2080002494301389 Vminpu=0.8 Vmaxpu=1.2 model=1 kW=6.820070000000001 kvar=1.388438766472582 Phases=2

New Load.load_p5ulv18085 conn=wye bus1=p5ulv18085.1.2 kV=0.2080002494301389 Vminpu=0.8 Vmaxpu=1.2 model=1 kW=6.98007 kvar=2.289280449138054 Phases=2

New Load.load_p5ulv18086 conn=wye bus1=p5ulv18086.1.2.3 kV=0.48 Vminpu=0.8 Vmaxpu=1.2 model=1 kW=30.760300000000004 kvar=6.2461453187001625 Phases=3

New Load.load_p5ulv18426 conn=wye bus1=p5ulv18426.1.2.3 kV=0.48 Vminpu=0.8 Vmaxpu=1.2 model=1 kW=21.2502 kvar=6.992140827168891 Phases=3

New Load.load_p5ulv18627 conn=wye bus1=p5ulv18627.1.2.3 kV=0.48 Vminpu=0.8 Vmaxpu=1.2 model=1 kW=31.780300000000004 kvar=6.453265152546846 Phases=3

New Load.load_p5ulv18640 conn=wye bus1=p5ulv18640.1.2 kV=0.2080002494301389 Vminpu=0.8 Vmaxpu=1.2 model=1 kW=2.31002 kvar=0.4702768914874764 Phases=2

New Load.load_p5ulv18823 conn=wye bus1=p5ulv18823.1.2.3 kV=0.48 Vminpu=0.8 Vmaxpu=1.2 model=1 kW=26.290300000000002 kvar=8.641203730383868 Phases=3

New Load.load_p5ulv18824 conn=wye bus1=p5ulv18824.1.2.3 kV=0.48 Vminpu=0.8 Vmaxpu=1.2 model=1 kW=44.9204 kvar=14.764621478276604 Phases=3

New Load.load_p5ulv18825 conn=wye bus1=p5ulv18825.1.2.3 kV=0.48 Vminpu=0.8 Vmaxpu=1.2 model=1 kW=86.6109 kvar=28.467626165236 Phases=3

New Load.load_p5ulv18838 conn=wye bus1=p5ulv18838.1.2 kV=0.2080002494301389 Vminpu=0.8 Vmaxpu=1.2 model=1 kW=4.58005 kvar=0.9300188186367714 Phases=2

New Load.load_p5ulv18839 conn=wye bus1=p5ulv18839.1.2.3 kV=0.48 Vminpu=0.8 Vmaxpu=1.2 model=1 kW=40.2504 kvar=13.229666707091317 Phases=3

New Load.load_p5ulv19027 conn=wye bus1=p5ulv19027.1.2.3 kV=0.48 Vminpu=0.8 Vmaxpu=1.2 model=1 kW=118.26099999999998 kvar=38.87051096255753 Phases=3

New Load.load_p5ulv19036 conn=wye bus1=p5ulv19036.1.2.3 kV=0.48 Vminpu=0.8 Vmaxpu=1.2 model=1 kW=91.6109 kvar=30.111046691130316 Phases=3

New Load.load_p5ulv19037 conn=wye bus1=p5ulv19037.1.2.3 kV=0.48 Vminpu=0.8 Vmaxpu=1.2 model=1 kW=28.240300000000005 kvar=9.28213773548265 Phases=3

New Load.load_p5ulv19038 conn=wye bus1=p5ulv19038.1.2.3 kV=0.48 Vminpu=0.8 Vmaxpu=1.2 model=1 kW=26.880299999999995 kvar=8.844662312662841 Phases=3

New Load.load_p5ulv19219 conn=wye bus1=p5ulv19219.1.2 kV=0.2080002494301389 Vminpu=0.8 Vmaxpu=1.2 model=1 kW=11.1901 kvar=2.272246718360571 Phases=2

New Load.load_p5ulv19220 conn=wye bus1=p5ulv19220.1.2.3 kV=0.48 Vminpu=0.8 Vmaxpu=1.2 model=1 kW=105.331 kvar=34.62062548259484 Phases=3

New Load.load_p5ulv20153 conn=wye bus1=p5ulv20153.1.2 kV=0.2080002494301389 Vminpu=0.8 Vmaxpu=1.2 model=1 kW=0.18000200000000002 kvar=0.03998917580847354 Phases=2

New Load.load_p5ulv33486 conn=wye bus1=p5ulv33486.1.2.3 kV=0.48 Vminpu=0.8 Vmaxpu=1.2 model=1 kW=40.8704 kvar=13.43345085230221 Phases=3

New Load.load_p5ulv34070 conn=wye bus1=p5ulv4854.1.2.3 kV=0.48 Vminpu=0.8 Vmaxpu=1.2 model=1 kW=39.360400000000006 kvar=12.937137853482124 Phases=3

New Load.load_p5ulv37421 conn=wye bus1=p5ulv37421.1.2 kV=0.2080002494301389 Vminpu=0.8 Vmaxpu=1.2 model=1 kW=0.470005 kvar=0.16008290838819988 Phases=2

New Load.load_p5ulv37970 conn=wye bus1=p5ulv6201.1.2.3 kV=0.48 Vminpu=0.8 Vmaxpu=1.2 model=1 kW=27.3503 kvar=8.98960888187346 Phases=3

New Load.load_p5ulv39618 conn=wye bus1=p5ulv39618.1.2.3 kV=0.48 Vminpu=0.8 Vmaxpu=1.2 model=1 kW=30.6803 kvar=6.229900625849441 Phases=3

New Load.load_p5ulv45177 conn=wye bus1=p5ulv8561u.1.2.3 kV=12.47 Vminpu=0.8 Vmaxpu=1.2 model=1 kW=154.042 kvar=50.63115692996243 Phases=3

New Load.load_p5ulv49085 conn=wye bus1=p5ulv9878.1.2.3 kV=0.48 Vminpu=0.8 Vmaxpu=1.2 model=1 kW=21.140199999999997 kvar=6.948447720302202 Phases=3

New Load.load_p5ulv50208 conn=wye bus1=p5ulv50208.1.2 kV=0.2080002494301389 Vminpu=0.8 Vmaxpu=1.2 model=1 kW=5.65006 kvar=1.8590891004298244 Phases=2

New Load.load_p5ulv54723 conn=wye bus1=p5ulv54723.1.2 kV=0.2080002494301389 Vminpu=0.8 Vmaxpu=1.2 model=1 kW=0.0 kvar=0.0 Phases=2

New Load.load_p5ulv55824 conn=wye bus1=p5ulv55824.1.2 kV=0.2080002494301389 Vminpu=0.8 Vmaxpu=1.2 model=1 kW=0.440004 kvar=0.1500168704752404 Phases=2

New Load.load_p5ulv59825 conn=wye bus1=p5ulv59825.1.2 kV=0.2080002494301389 Vminpu=0.8 Vmaxpu=1.2 model=1 kW=0.850009 kvar=0.16991467436095545 Phases=2

New Load.load_p5ulv65963 conn=wye bus1=p5ulv65963.1.2 kV=0.2080002494301389 Vminpu=0.8 Vmaxpu=1.2 model=1 kW=0.870009 kvar=0.1798245473795246 Phases=2

New Load.load_p5ulv65965 conn=wye bus1=p5ulv65965.1.2.3 kV=0.48 Vminpu=0.8 Vmaxpu=1.2 model=1 kW=168.992 kvar=55.54498430238644 Phases=3

New Load.load_p5ulv71549 conn=wye bus1=p5ulv71549.1.2 kV=0.2080002494301389 Vminpu=0.8 Vmaxpu=1.2 model=1 kW=0.140001 kvar=0.04001348426309979 Phases=2

New Load.load_p5ulv73780 conn=wye bus1=p5ulv18085.1.2 kV=0.2080002494301389 Vminpu=0.8 Vmaxpu=1.2 model=1 kW=4.95005 kvar=1.6305131738799141 Phases=2

New Load.load_p5ulv76010 conn=wye bus1=p5ulv76010.1.2.3 kV=0.48 Vminpu=0.8 Vmaxpu=1.2 model=1 kW=35.39039999999999 kvar=11.632261955922036 Phases=3

New Load.load_p5ulv76011 conn=wye bus1=p5ulv76011.1.2 kV=0.2080002494301389 Vminpu=0.8 Vmaxpu=1.2 model=1 kW=14.1401 kvar=4.6476261156396435 Phases=2

New Load.load_p5ulv77607 conn=wye bus1=p5ulv77607.1.2 kV=0.2080002494301389 Vminpu=0.8 Vmaxpu=1.2 model=1 kW=0.0600006 kvar=0.009997820545494612 Phases=2

New Load.load_p5ulv77611 conn=wye bus1=p5ulv77611.1.2.3 kV=0.48 Vminpu=0.8 Vmaxpu=1.2 model=1 kW=79.38080000000001 kvar=26.0912072163823 Phases=3

New Load.load_p5umv111 conn=wye bus1=p5umv111.1.2.3 kV=12.47 Vminpu=0.8 Vmaxpu=1.2 model=1 kW=874.3690000000001 kvar=287.3911923611374 Phases=3

New Load.load_p5ulv77696 conn=wye bus1=p5ulv77696.1.2 kV=0.2080002494301389 Vminpu=0.8 Vmaxpu=1.2 model=1 kW=0.320003 kvar=0.09997735728293923 Phases=2

New Load.load_p5ulv77698 conn=wye bus1=p5ulv77698.1.2 kV=0.2080002494301389 Vminpu=0.8 Vmaxpu=1.2 model=1 kW=0.0700007 kvar=0.02000679929326197 Phases=2

New Load.load_p5ulv77699 conn=wye bus1=p5ulv13336.1.2.3 kV=0.48 Vminpu=0.8 Vmaxpu=1.2 model=1 kW=22.9902 kvar=7.5565133148831 Phases=3

New Load.load_p5ulv77700 conn=wye bus1=p5ulv77700.1.2 kV=0.2080002494301389 Vminpu=0.8 Vmaxpu=1.2 model=1 kW=0.120001 kvar=0.0399932906804019 Phases=2

New Load.load_p5ulv77701 conn=wye bus1=p5ulv77701.1.2.3 kV=0.48 Vminpu=0.8 Vmaxpu=1.2 model=1 kW=242.15200000000002 kvar=79.59151343727208 Phases=3

New Load.load_p5ulv77728 conn=wye bus1=p5ulv77728.1.2 kV=0.2080002494301389 Vminpu=0.8 Vmaxpu=1.2 model=1 kW=1.12001 kvar=0.2297613266028677 Phases=2

New Load.load_p5ulv77729 conn=wye bus1=p5ulv77729.1.2 kV=0.2080002494301389 Vminpu=0.8 Vmaxpu=1.2 model=1 kW=0.0500005 kvar=0.009994974965423842 Phases=2

New Load.load_p5ulv77730 conn=wye bus1=p5ulv77730.1.2 kV=0.2080002494301389 Vminpu=0.8 Vmaxpu=1.2 model=1 kW=0.100001 kvar=0.019989949930847684 Phases=2

New Load.load_p5ulv77731 conn=wye bus1=p5ulv7680.1.2 kV=0.2080002494301389 Vminpu=0.8 Vmaxpu=1.2 model=1 kW=0.200002 kvar=0.03997989986169537 Phases=2

New Load.load_p5ulv77732 conn=wye bus1=p5ulv77732.1.2 kV=0.2080002494301389 Vminpu=0.8 Vmaxpu=1.2 model=1 kW=0.09000090000000001 kvar=0.019994565688274832 Phases=2

New Load.load_p5umv115 conn=wye bus1=p5umv115.1.2.3 kV=12.47 Vminpu=0.8 Vmaxpu=1.2 model=1 kW=1965.73 kvar=646.1042060732467 Phases=3
