New Load.load_p1ulv550 conn=wye bus1=p1ulv550.1.2 kV=0.2080002494301389 Vminpu=0.8 Vmaxpu=1.2 model=1 kW=5.80006 kvar=1.1807837972142463 Phases=2

New Load.load_p1ulv551 conn=wye bus1=p1ulv551.1.2 kV=0.2080002494301389 Vminpu=0.8 Vmaxpu=1.2 model=1 kW=6.060060000000001 kvar=1.2305476669617041 Phases=2

New Load.load_p1ulv552 conn=wye bus1=p1ulv552.1.2 kV=0.2080002494301389 Vminpu=0.8 Vmaxpu=1.2 model=1 kW=8.00008 kvar=1.6202948096478251 Phases=2

New Load.load_p1ulv556 conn=wye bus1=p1ulv556.1.2 kV=0.2080002494301389 Vminpu=0.8 Vmaxpu=1.2 model=1 kW=5.55006 kvar=1.1298884703894267 Phases=2

New Load.load_p1ulv581 conn=wye bus1=p1ulv581.1.2 kV=0.2080002494301389 Vminpu=0.8 Vmaxpu=1.2 model=1 kW=7.02007 kvar=1.4291550279324372 Phases=2

New Load.load_p1ulv582 conn=wye bus1=p1ulv582.1.2 kV=0.2080002494301389 Vminpu=0.8 Vmaxpu=1.2 model=1 kW=6.09006 kvar=1.2398223763310365 Phases=2

New Load.load_p1ulv583 conn=wye bus1=p1ulv583.1.2 kV=0.2080002494301389 Vminpu=0.8 Vmaxpu=1.2 model=1 kW=6.33006 kvar=1.2886818900828627 Phases=2

New Load.load_p1ulv584 conn=wye bus1=p1ulv584.1.2 kV=0.2080002494301389 Vminpu=0.8 Vmaxpu=1.2 model=1 kW=6.28006 kvar=1.2785028247178991 Phases=2

New Load.load_p1ulv585 conn=wye bus1=p1ulv585.1.2 kV=0.2080002494301389 Vminpu=0.8 Vmaxpu=1.2 model=1 kW=6.48006 kvar=1.3192190861777544 Phases=2

New Load.load_p1ulv1147 conn=wye bus1=p1ulv1147.1.2 kV=0.2080002494301389 Vminpu=0.8 Vmaxpu=1.2 model=1 kW=7.60008 kvar=1.5392808793047372 Phases=2

New Load.load_p1ulv1148 conn=wye bus1=p1ulv1148.1.2 kV=0.2080002494301389 Vminpu=0.8 Vmaxpu=1.2 model=1 kW=7.55008 kvar=1.5291541380118512 Phases=2

New Load.load_p1ulv1149 conn=wye bus1=p1ulv1149.1.2 kV=0.2080002494301389 Vminpu=0.8 Vmaxpu=1.2 model=1 kW=5.39005 kvar=1.088842888327837 Phases=2

New Load.load_p1ulv1154 conn=wye bus1=p1ulv1154.1.2 kV=0.2080002494301389 Vminpu=0.8 Vmaxpu=1.2 model=1 kW=5.74006 kvar=1.1685689187762893 Phases=2

New Load.load_p1ulv1155 conn=wye bus1=p1ulv1155.1.2 kV=0.2080002494301389 Vminpu=0.8 Vmaxpu=1.2 model=1 kW=4.99005 kvar=1.0106589077713133 Phases=2

New Load.load_p1ulv1156 conn=wye bus1=p1ulv1156.1.2 kV=0.2080002494301389 Vminpu=0.8 Vmaxpu=1.2 model=1 kW=6.30006 kvar=1.2792817455138652 Phases=2

New Load.load_p1ulv1157 conn=wye bus1=p1ulv1157.1.2 kV=0.2080002494301389 Vminpu=0.8 Vmaxpu=1.2 model=1 kW=6.07006 kvar=1.2293985450459088 Phases=2

New Load.load_p1ulv1180 conn=wye bus1=p1ulv1180.1.2 kV=0.2080002494301389 Vminpu=0.8 Vmaxpu=1.2 model=1 kW=5.54006 kvar=1.1191463774750727 Phases=2

New Load.load_p1ulv1181 conn=wye bus1=p1ulv1181.1.2 kV=0.2080002494301389 Vminpu=0.8 Vmaxpu=1.2 model=1 kW=5.31005 kvar=1.0810269208245273 Phases=2

New Load.load_p1ulv1831 conn=wye bus1=p1ulv1831.1.2 kV=0.2080002494301389 Vminpu=0.8 Vmaxpu=1.2 model=1 kW=17.4202 kvar=3.5373224799764817 Phases=2

New Load.load_p1ulv1835 conn=wye bus1=p1ulv1835.1.2 kV=0.2080002494301389 Vminpu=0.8 Vmaxpu=1.2 model=1 kW=6.07006 kvar=1.2293985450459088 Phases=2

New Load.load_p1ulv1836 conn=wye bus1=p1ulv1836.1.2 kV=0.2080002494301389 Vminpu=0.8 Vmaxpu=1.2 model=1 kW=6.84007 kvar=1.3889354528428337 Phases=2

New Load.load_p1ulv1837 conn=wye bus1=p1ulv1837.1.2 kV=0.2080002494301389 Vminpu=0.8 Vmaxpu=1.2 model=1 kW=6.21006 kvar=1.2610064660568046 Phases=2

New Load.load_p1ulv2453 conn=wye bus1=p1ulv2453.1.2 kV=0.2080002494301389 Vminpu=0.8 Vmaxpu=1.2 model=1 kW=7.10007 kvar=1.4417307046076748 Phases=2

New Load.load_p1ulv2458 conn=wye bus1=p1ulv2458.1.2 kV=0.2080002494301389 Vminpu=0.8 Vmaxpu=1.2 model=1 kW=6.270060000000001 kvar=1.269905510217453 Phases=2

New Load.load_p1ulv2484 conn=wye bus1=p1ulv2484.1.2 kV=0.2080002494301389 Vminpu=0.8 Vmaxpu=1.2 model=1 kW=7.52008 kvar=1.5309477173951491 Phases=2

New Load.load_p1ulv2485 conn=wye bus1=p1ulv2485.1.2 kV=0.2080002494301389 Vminpu=0.8 Vmaxpu=1.2 model=1 kW=6.05006 kvar=1.2285170803553642 Phases=2

New Load.load_p1ulv3112 conn=wye bus1=p1ulv3112.1.2 kV=0.2080002494301389 Vminpu=0.8 Vmaxpu=1.2 model=1 kW=6.24006 kvar=1.270359572425928 Phases=2

New Load.load_p1ulv3118 conn=wye bus1=p1ulv3118.1.2 kV=0.2080002494301389 Vminpu=0.8 Vmaxpu=1.2 model=1 kW=5.82006 kvar=1.1787648385814788 Phases=2

New Load.load_p1ulv3119 conn=wye bus1=p1ulv3119.1.2 kV=0.2080002494301389 Vminpu=0.8 Vmaxpu=1.2 model=1 kW=6.65007 kvar=1.3503543073223732 Phases=2

New Load.load_p1ulv3139 conn=wye bus1=p1ulv3139.1.2 kV=0.2080002494301389 Vminpu=0.8 Vmaxpu=1.2 model=1 kW=6.820070000000001 kvar=1.3813016897874575 Phases=2

New Load.load_p1ulv3141 conn=wye bus1=p1ulv3141.1.2 kV=0.2080002494301389 Vminpu=0.8 Vmaxpu=1.2 model=1 kW=7.09007 kvar=1.4397001180013347 Phases=2

New Load.load_p1ulv3142 conn=wye bus1=p1ulv3142.1.2 kV=0.2080002494301389 Vminpu=0.8 Vmaxpu=1.2 model=1 kW=5.95006 kvar=1.2113209933091376 Phases=2

New Load.load_p1ulv3143 conn=wye bus1=p1ulv3143.1.2 kV=0.2080002494301389 Vminpu=0.8 Vmaxpu=1.2 model=1 kW=8.06008 kvar=1.6408816233367585 Phases=2

New Load.load_p1ulv3144 conn=wye bus1=p1ulv3144.1.2 kV=0.2080002494301389 Vminpu=0.8 Vmaxpu=1.2 model=1 kW=6.52007 kvar=1.3205412420301414 Phases=2

New Load.load_p1ulv3145 conn=wye bus1=p1ulv3145.1.2 kV=0.2080002494301389 Vminpu=0.8 Vmaxpu=1.2 model=1 kW=5.890060000000001 kvar=1.199106114871181 Phases=2

New Load.load_p1ulv3740 conn=wye bus1=p1ulv3740.1.2.3 kV=0.48 Vminpu=0.8 Vmaxpu=1.2 model=1 kW=231.20200000000003 kvar=46.94756845590307 Phases=3

New Load.load_p1ulv3745 conn=wye bus1=p1ulv3745.1.2 kV=0.2080002494301389 Vminpu=0.8 Vmaxpu=1.2 model=1 kW=7.16007 kvar=1.4501635305790819 Phases=2

New Load.load_p1ulv3746 conn=wye bus1=p1ulv3746.1.2 kV=0.2080002494301389 Vminpu=0.8 Vmaxpu=1.2 model=1 kW=6.49006 kvar=1.3212548992507473 Phases=2

New Load.load_p1ulv3772 conn=wye bus1=p1ulv3772.1.2 kV=0.2080002494301389 Vminpu=0.8 Vmaxpu=1.2 model=1 kW=5.890060000000001 kvar=1.199106114871181 Phases=2

New Load.load_p1ulv3773 conn=wye bus1=p1ulv3773.1.2 kV=0.2080002494301389 Vminpu=0.8 Vmaxpu=1.2 model=1 kW=6.28006 kvar=1.2785028247178991 Phases=2

New Load.load_p1ulv3774 conn=wye bus1=p1ulv3774.1.2 kV=0.2080002494301389 Vminpu=0.8 Vmaxpu=1.2 model=1 kW=7.12007 kvar=1.449513158662365 Phases=2

New Load.load_p1ulv4342 conn=wye bus1=p1ulv4342.1.2 kV=0.2080002494301389 Vminpu=0.8 Vmaxpu=1.2 model=1 kW=5.65006 kvar=1.1502466011193542 Phases=2

New Load.load_p1ulv4345 conn=wye bus1=p1ulv4345.1.2 kV=0.2080002494301389 Vminpu=0.8 Vmaxpu=1.2 model=1 kW=6.20006 kvar=1.2589758794504644 Phases=2

New Load.load_p1ulv4346 conn=wye bus1=p1ulv4346.1.2 kV=0.2080002494301389 Vminpu=0.8 Vmaxpu=1.2 model=1 kW=6.46006 kvar=1.30838712713042 Phases=2

New Load.load_p1ulv4370 conn=wye bus1=p1ulv4370.1.2 kV=0.2080002494301389 Vminpu=0.8 Vmaxpu=1.2 model=1 kW=7.17007 kvar=1.4484243612420615 Phases=2

New Load.load_p1ulv4371 conn=wye bus1=p1ulv4371.1.2 kV=0.2080002494301389 Vminpu=0.8 Vmaxpu=1.2 model=1 kW=6.140060000000001 kvar=1.2500014416960006 Phases=2

New Load.load_p1ulv4372 conn=wye bus1=p1ulv4372.1.2 kV=0.2080002494301389 Vminpu=0.8 Vmaxpu=1.2 model=1 kW=6.20006 kvar=1.2589758794504644 Phases=2

New Load.load_p1ulv4373 conn=wye bus1=p1ulv4373.1.2 kV=0.2080002494301389 Vminpu=0.8 Vmaxpu=1.2 model=1 kW=5.62006 kvar=1.141201856282742 Phases=2

New Load.load_p1ulv4963 conn=wye bus1=p1ulv4963.1.2 kV=0.2080002494301389 Vminpu=0.8 Vmaxpu=1.2 model=1 kW=7.41007 kvar=1.5007972370435119 Phases=2

New Load.load_p1ulv4964 conn=wye bus1=p1ulv4964.1.2 kV=0.2080002494301389 Vminpu=0.8 Vmaxpu=1.2 model=1 kW=8.36008 kvar=1.7019560155265416 Phases=2

New Load.load_p1ulv4965 conn=wye bus1=p1ulv4965.1.2 kV=0.2080002494301389 Vminpu=0.8 Vmaxpu=1.2 model=1 kW=6.49006 kvar=1.3212548992507473 Phases=2

New Load.load_p1ulv4968 conn=wye bus1=p1ulv4968.1.2 kV=0.2080002494301389 Vminpu=0.8 Vmaxpu=1.2 model=1 kW=6.52007 kvar=1.3205412420301414 Phases=2

New Load.load_p1ulv4969 conn=wye bus1=p1ulv4969.1.2 kV=0.2080002494301389 Vminpu=0.8 Vmaxpu=1.2 model=1 kW=6.73007 kvar=1.370116448815647 Phases=2

New Load.load_p1ulv4970 conn=wye bus1=p1ulv4970.1.2 kV=0.2080002494301389 Vminpu=0.8 Vmaxpu=1.2 model=1 kW=7.68008 kvar=1.5595067583620035 Phases=2

New Load.load_p1ulv4994 conn=wye bus1=p1ulv4994.1.2 kV=0.2080002494301389 Vminpu=0.8 Vmaxpu=1.2 model=1 kW=6.44006 kvar=1.3110758338857833 Phases=2

New Load.load_p1ulv4995 conn=wye bus1=p1ulv4995.1.2 kV=0.2080002494301389 Vminpu=0.8 Vmaxpu=1.2 model=1 kW=5.95006 kvar=1.2113209933091376 Phases=2

New Load.load_p1ulv4996 conn=wye bus1=p1ulv4996.1.2 kV=0.2080002494301389 Vminpu=0.8 Vmaxpu=1.2 model=1 kW=6.24006 kvar=1.270359572425928 Phases=2

New Load.load_p1ulv5598 conn=wye bus1=p1ulv5598.1.2 kV=0.2080002494301389 Vminpu=0.8 Vmaxpu=1.2 model=1 kW=7.58008 kvar=1.5392008922986034 Phases=2

New Load.load_p1ulv5599 conn=wye bus1=p1ulv5599.1.2 kV=0.2080002494301389 Vminpu=0.8 Vmaxpu=1.2 model=1 kW=6.20006 kvar=1.2589758794504644 Phases=2

New Load.load_p1ulv5630 conn=wye bus1=p1ulv5630.1.2 kV=0.2080002494301389 Vminpu=0.8 Vmaxpu=1.2 model=1 kW=5.95006 kvar=1.2113209933091376 Phases=2

New Load.load_p1ulv5631 conn=wye bus1=p1ulv5631.1.2 kV=0.2080002494301389 Vminpu=0.8 Vmaxpu=1.2 model=1 kW=6.13006 kvar=1.2511622571972472 Phases=2

New Load.load_p1ulv5632 conn=wye bus1=p1ulv5632.1.2 kV=0.2080002494301389 Vminpu=0.8 Vmaxpu=1.2 model=1 kW=6.86007 kvar=1.3894030828217663 Phases=2

New Load.load_p1ulv5633 conn=wye bus1=p1ulv5633.1.2 kV=0.2080002494301389 Vminpu=0.8 Vmaxpu=1.2 model=1 kW=6.28006 kvar=1.2785028247178991 Phases=2

New Load.load_p1ulv5634 conn=wye bus1=p1ulv5634.1.2 kV=0.2080002494301389 Vminpu=0.8 Vmaxpu=1.2 model=1 kW=7.10007 kvar=1.4417307046076748 Phases=2

New Load.load_p1ulv5635 conn=wye bus1=p1ulv5635.1.2 kV=0.2080002494301389 Vminpu=0.8 Vmaxpu=1.2 model=1 kW=5.640060000000001 kvar=1.1393473568412724 Phases=2

New Load.load_p1ulv5636 conn=wye bus1=p1ulv5636.1.2 kV=0.2080002494301389 Vminpu=0.8 Vmaxpu=1.2 model=1 kW=6.37006 kvar=1.2901589928032249 Phases=2

New Load.load_p1ulv6258 conn=wye bus1=p1ulv6258.1.2 kV=0.2080002494301389 Vminpu=0.8 Vmaxpu=1.2 model=1 kW=6.64007 kvar=1.3483237207160328 Phases=2

New Load.load_p1ulv6263 conn=wye bus1=p1ulv6263.1.2 kV=0.2080002494301389 Vminpu=0.8 Vmaxpu=1.2 model=1 kW=7.35007 kvar=1.4886451474920486 Phases=2

New Load.load_p1ulv6264 conn=wye bus1=p1ulv6264.1.2 kV=0.2080002494301389 Vminpu=0.8 Vmaxpu=1.2 model=1 kW=5.02005 kvar=1.0193646293157332 Phases=2

New Load.load_p1ulv6294 conn=wye bus1=p1ulv6294.1.2 kV=0.2080002494301389 Vminpu=0.8 Vmaxpu=1.2 model=1 kW=6.75007 kvar=1.3706601733857733 Phases=2

New Load.load_p1ulv6295 conn=wye bus1=p1ulv6295.1.2 kV=0.2080002494301389 Vminpu=0.8 Vmaxpu=1.2 model=1 kW=5.95006 kvar=1.2113209933091376 Phases=2

New Load.load_p1ulv6902 conn=wye bus1=p1ulv6902.1.2 kV=0.2080002494301389 Vminpu=0.8 Vmaxpu=1.2 model=1 kW=5.40005 kvar=1.0993492384814623 Phases=2

New Load.load_p1ulv6905 conn=wye bus1=p1ulv6905.1.2 kV=0.2080002494301389 Vminpu=0.8 Vmaxpu=1.2 model=1 kW=6.47006 kvar=1.3104124753889972 Phases=2

New Load.load_p1ulv6906 conn=wye bus1=p1ulv6906.1.2 kV=0.2080002494301389 Vminpu=0.8 Vmaxpu=1.2 model=1 kW=6.01006 kvar=1.2203947339300039 Phases=2

New Load.load_p1ulv6907 conn=wye bus1=p1ulv6907.1.2 kV=0.2080002494301389 Vminpu=0.8 Vmaxpu=1.2 model=1 kW=5.80006 kvar=1.1807837972142463 Phases=2

New Load.load_p1ulv6928 conn=wye bus1=p1ulv6928.1.2 kV=0.2080002494301389 Vminpu=0.8 Vmaxpu=1.2 model=1 kW=6.18006 kvar=1.2613673959495373 Phases=2

New Load.load_p1ulv6929 conn=wye bus1=p1ulv6929.1.2 kV=0.2080002494301389 Vminpu=0.8 Vmaxpu=1.2 model=1 kW=5.95006 kvar=1.2113209933091376 Phases=2

New Load.load_p1ulv6930 conn=wye bus1=p1ulv6930.1.2 kV=0.2080002494301389 Vminpu=0.8 Vmaxpu=1.2 model=1 kW=6.71007 kvar=1.3590228589431081 Phases=2

New Load.load_p1ulv6931 conn=wye bus1=p1ulv6931.1.2 kV=0.2080002494301389 Vminpu=0.8 Vmaxpu=1.2 model=1 kW=6.29006 kvar=1.280538637790892 Phases=2

New Load.load_p1ulv6932 conn=wye bus1=p1ulv6932.1.2 kV=0.2080002494301389 Vminpu=0.8 Vmaxpu=1.2 model=1 kW=6.36006 kvar=1.2914652651519052 Phases=2

New Load.load_p1ulv7528 conn=wye bus1=p1ulv7528.1.2 kV=0.2080002494301389 Vminpu=0.8 Vmaxpu=1.2 model=1 kW=6.52007 kvar=1.3205412420301414 Phases=2

New Load.load_p1ulv7532 conn=wye bus1=p1ulv7532.1.2 kV=0.2080002494301389 Vminpu=0.8 Vmaxpu=1.2 model=1 kW=7.030070000000001 kvar=1.43119084100543 Phases=2

New Load.load_p1ulv7533 conn=wye bus1=p1ulv7533.1.2 kV=0.2080002494301389 Vminpu=0.8 Vmaxpu=1.2 model=1 kW=6.50007 kvar=1.319895508227272 Phases=2

New Load.load_p1ulv7534 conn=wye bus1=p1ulv7534.1.2 kV=0.2080002494301389 Vminpu=0.8 Vmaxpu=1.2 model=1 kW=6.85007 kvar=1.3909660394491736 Phases=2

New Load.load_p1ulv7535 conn=wye bus1=p1ulv7535.1.2 kV=0.2080002494301389 Vminpu=0.8 Vmaxpu=1.2 model=1 kW=7.29007 kvar=1.4803118501281356 Phases=2

New Load.load_p1ulv7557 conn=wye bus1=p1ulv7557.1.2 kV=0.2080002494301389 Vminpu=0.8 Vmaxpu=1.2 model=1 kW=6.40006 kvar=1.2995876115772655 Phases=2

New Load.load_p1ulv7558 conn=wye bus1=p1ulv7558.1.2 kV=0.2080002494301389 Vminpu=0.8 Vmaxpu=1.2 model=1 kW=6.11006 kvar=1.2407005999934042 Phases=2

New Load.load_p1ulv7559 conn=wye bus1=p1ulv7559.1.2 kV=0.2080002494301389 Vminpu=0.8 Vmaxpu=1.2 model=1 kW=6.24006 kvar=1.270359572425928 Phases=2

New Load.load_p1ulv7560 conn=wye bus1=p1ulv7560.1.2 kV=0.2080002494301389 Vminpu=0.8 Vmaxpu=1.2 model=1 kW=7.11007 kvar=1.4400367892861963 Phases=2

New Load.load_p1ulv7561 conn=wye bus1=p1ulv7561.1.2 kV=0.2080002494301389 Vminpu=0.8 Vmaxpu=1.2 model=1 kW=6.50007 kvar=1.319895508227272 Phases=2

New Load.load_p1ulv8129 conn=wye bus1=p1ulv8129.1.2 kV=0.2080002494301389 Vminpu=0.8 Vmaxpu=1.2 model=1 kW=6.90007 kvar=1.4011189724808741 Phases=2

New Load.load_p1ulv8132 conn=wye bus1=p1ulv8132.1.2 kV=0.2080002494301389 Vminpu=0.8 Vmaxpu=1.2 model=1 kW=6.310060000000001 kvar=1.2813123321202051 Phases=2

New Load.load_p1ulv8133 conn=wye bus1=p1ulv8133.1.2 kV=0.2080002494301389 Vminpu=0.8 Vmaxpu=1.2 model=1 kW=6.23006 kvar=1.2585331351018492 Phases=2

New Load.load_p1ulv8134 conn=wye bus1=p1ulv8134.1.2 kV=0.2080002494301389 Vminpu=0.8 Vmaxpu=1.2 model=1 kW=6.52007 kvar=1.3205412420301414 Phases=2

New Load.load_p1ulv8135 conn=wye bus1=p1ulv8135.1.2 kV=0.2080002494301389 Vminpu=0.8 Vmaxpu=1.2 model=1 kW=6.94007 kvar=1.4092413189062343 Phases=2

New Load.load_p1ulv8157 conn=wye bus1=p1ulv8157.1.2 kV=0.2080002494301389 Vminpu=0.8 Vmaxpu=1.2 model=1 kW=6.55007 kvar=1.3300484412589724 Phases=2

New Load.load_p1ulv8158 conn=wye bus1=p1ulv8158.1.2 kV=0.2080002494301389 Vminpu=0.8 Vmaxpu=1.2 model=1 kW=6.18006 kvar=1.2613673959495373 Phases=2

New Load.load_p1ulv8159 conn=wye bus1=p1ulv8159.1.2 kV=0.2080002494301389 Vminpu=0.8 Vmaxpu=1.2 model=1 kW=7.18007 kvar=1.4617280371003216 Phases=2

New Load.load_p1ulv8753 conn=wye bus1=p1ulv8753.1.2.3 kV=0.48 Vminpu=0.8 Vmaxpu=1.2 model=1 kW=22.590200000000003 kvar=7.433052851921895 Phases=3

New Load.load_p1ulv8767 conn=wye bus1=p1ulv8767.1.2 kV=0.2080002494301389 Vminpu=0.8 Vmaxpu=1.2 model=1 kW=5.810060000000001 kvar=1.1797830018032032 Phases=2

New Load.load_p1ulv8768 conn=wye bus1=p1ulv8768.1.2 kV=0.2080002494301389 Vminpu=0.8 Vmaxpu=1.2 model=1 kW=5.770060000000001 kvar=1.1686380972885935 Phases=2

New Load.load_p1ulv8797 conn=wye bus1=p1ulv8797.1.2 kV=0.2080002494301389 Vminpu=0.8 Vmaxpu=1.2 model=1 kW=6.07006 kvar=1.2293985450459088 Phases=2

New Load.load_p1ulv9378 conn=wye bus1=p1ulv9378.1.2 kV=0.2080002494301389 Vminpu=0.8 Vmaxpu=1.2 model=1 kW=6.86007 kvar=1.3894030828217663 Phases=2

New Load.load_p1ulv9379 conn=wye bus1=p1ulv9379.1.2 kV=0.2080002494301389 Vminpu=0.8 Vmaxpu=1.2 model=1 kW=6.03006 kvar=1.2307519796926671 Phases=2

New Load.load_p1ulv9988 conn=wye bus1=p1ulv9988.1.2 kV=0.2080002494301389 Vminpu=0.8 Vmaxpu=1.2 model=1 kW=5.380050000000001 kvar=1.0896474898558242 Phases=2

New Load.load_p1ulv9989 conn=wye bus1=p1ulv9989.1.2 kV=0.2080002494301389 Vminpu=0.8 Vmaxpu=1.2 model=1 kW=7.26007 kvar=1.4704170131648537 Phases=2

New Load.load_p1ulv9990 conn=wye bus1=p1ulv9990.1.2 kV=0.2080002494301389 Vminpu=0.8 Vmaxpu=1.2 model=1 kW=6.23006 kvar=1.2585331351018492 Phases=2

New Load.load_p1ulv9993 conn=wye bus1=p1ulv9993.1.2 kV=0.2080002494301389 Vminpu=0.8 Vmaxpu=1.2 model=1 kW=6.17006 kvar=1.249652027631681 Phases=2

New Load.load_p1ulv9994 conn=wye bus1=p1ulv9994.1.2 kV=0.2080002494301389 Vminpu=0.8 Vmaxpu=1.2 model=1 kW=5.96006 kvar=1.2102418008983036 Phases=2

New Load.load_p1ulv10028 conn=wye bus1=p1ulv10028.1.2 kV=0.2080002494301389 Vminpu=0.8 Vmaxpu=1.2 model=1 kW=6.33006 kvar=1.2886818900828627 Phases=2

New Load.load_p1ulv10029 conn=wye bus1=p1ulv10029.1.2 kV=0.2080002494301389 Vminpu=0.8 Vmaxpu=1.2 model=1 kW=7.16007 kvar=1.4501635305790819 Phases=2

New Load.load_p1ulv10621 conn=wye bus1=p1ulv10621.1.2 kV=0.2080002494301389 Vminpu=0.8 Vmaxpu=1.2 model=1 kW=6.55007 kvar=1.3300484412589724 Phases=2

New Load.load_p1ulv10622 conn=wye bus1=p1ulv10622.1.2 kV=0.2080002494301389 Vminpu=0.8 Vmaxpu=1.2 model=1 kW=7.68008 kvar=1.5595067583620035 Phases=2

New Load.load_p1ulv10650 conn=wye bus1=p1ulv10650.1.2 kV=0.2080002494301389 Vminpu=0.8 Vmaxpu=1.2 model=1 kW=6.81007 kvar=1.37927634152888 Phases=2

New Load.load_p1ulv10651 conn=wye bus1=p1ulv10651.1.2 kV=0.2080002494301389 Vminpu=0.8 Vmaxpu=1.2 model=1 kW=5.87006 kvar=1.1888915798743651 Phases=2

New Load.load_p1ulv10652 conn=wye bus1=p1ulv10652.1.2 kV=0.2080002494301389 Vminpu=0.8 Vmaxpu=1.2 model=1 kW=6.83007 kvar=1.3904745795455744 Phases=2

New Load.load_p1ulv10653 conn=wye bus1=p1ulv10653.1.2 kV=0.2080002494301389 Vminpu=0.8 Vmaxpu=1.2 model=1 kW=6.33006 kvar=1.2886818900828627 Phases=2

New Load.load_p1ulv10654 conn=wye bus1=p1ulv10654.1.2 kV=0.2080002494301389 Vminpu=0.8 Vmaxpu=1.2 model=1 kW=5.99006 kvar=1.2194642456011087 Phases=2

New Load.load_p1ulv10655 conn=wye bus1=p1ulv10655.1.2 kV=0.2080002494301389 Vminpu=0.8 Vmaxpu=1.2 model=1 kW=7.7500800000000005 kvar=1.5696611031833951 Phases=2

New Load.load_p1ulv11243 conn=wye bus1=p1ulv11243.1.2 kV=0.2080002494301389 Vminpu=0.8 Vmaxpu=1.2 model=1 kW=7.64008 kvar=1.5513844119366436 Phases=2

New Load.load_p1ulv11276 conn=wye bus1=p1ulv11276.1.2 kV=0.2080002494301389 Vminpu=0.8 Vmaxpu=1.2 model=1 kW=7.42007 kvar=1.510587550852148 Phases=2

New Load.load_p1ulv11277 conn=wye bus1=p1ulv11277.1.2 kV=0.2080002494301389 Vminpu=0.8 Vmaxpu=1.2 model=1 kW=6.03006 kvar=1.2212971520116003 Phases=2

New Load.load_p1ulv11865 conn=wye bus1=p1ulv11865.1.2.3 kV=0.48 Vminpu=0.8 Vmaxpu=1.2 model=1 kW=24.8302 kvar=5.0419871552744535 Phases=3

New Load.load_p1ulv11866 conn=wye bus1=p1ulv11866.1.2 kV=0.2080002494301389 Vminpu=0.8 Vmaxpu=1.2 model=1 kW=7.44007 kvar=1.5107706492232365 Phases=2

New Load.load_p1ulv11869 conn=wye bus1=p1ulv11869.1.2 kV=0.2080002494301389 Vminpu=0.8 Vmaxpu=1.2 model=1 kW=5.770060000000001 kvar=1.1686380972885935 Phases=2

New Load.load_p1ulv11895 conn=wye bus1=p1ulv11895.1.2 kV=0.2080002494301389 Vminpu=0.8 Vmaxpu=1.2 model=1 kW=9.09009 kvar=1.8505724056680872 Phases=2

New Load.load_p1ulv12495 conn=wye bus1=p1ulv12495.1.2 kV=0.2080002494301389 Vminpu=0.8 Vmaxpu=1.2 model=1 kW=9.27009 kvar=1.8823720593566768 Phases=2

New Load.load_p1ulv12496 conn=wye bus1=p1ulv12496.1.2 kV=0.2080002494301389 Vminpu=0.8 Vmaxpu=1.2 model=1 kW=6.97007 kvar=1.4116819136661152 Phases=2

New Load.load_p1ulv12497 conn=wye bus1=p1ulv12497.1.2 kV=0.2080002494301389 Vminpu=0.8 Vmaxpu=1.2 model=1 kW=7.7100800000000005 kvar=1.5696281657820117 Phases=2

New Load.load_p1ulv12527 conn=wye bus1=p1ulv12527.1.2 kV=0.2080002494301389 Vminpu=0.8 Vmaxpu=1.2 model=1 kW=6.92007 kvar=1.4015551723732291 Phases=2

New Load.load_p1ulv12528 conn=wye bus1=p1ulv12528.1.2 kV=0.2080002494301389 Vminpu=0.8 Vmaxpu=1.2 model=1 kW=6.40006 kvar=1.2995876115772655 Phases=2

New Load.load_p1ulv12529 conn=wye bus1=p1ulv12529.1.2 kV=0.2080002494301389 Vminpu=0.8 Vmaxpu=1.2 model=1 kW=6.36006 kvar=1.2914652651519052 Phases=2

New Load.load_p1ulv12530 conn=wye bus1=p1ulv12530.1.2 kV=0.2080002494301389 Vminpu=0.8 Vmaxpu=1.2 model=1 kW=5.27005 kvar=1.0701292944742342 Phases=2

New Load.load_p1ulv13095 conn=wye bus1=p1ulv13095.1.2 kV=0.2080002494301389 Vminpu=0.8 Vmaxpu=1.2 model=1 kW=5.87006 kvar=1.1888915798743651 Phases=2

New Load.load_p1ulv13099 conn=wye bus1=p1ulv13099.1.2 kV=0.2080002494301389 Vminpu=0.8 Vmaxpu=1.2 model=1 kW=5.520060000000001 kvar=1.1208959902193418 Phases=2

New Load.load_p1ulv13100 conn=wye bus1=p1ulv13100.1.2 kV=0.2080002494301389 Vminpu=0.8 Vmaxpu=1.2 model=1 kW=6.40006 kvar=1.2995876115772655 Phases=2

New Load.load_p1ulv13101 conn=wye bus1=p1ulv13101.1.2 kV=0.2080002494301389 Vminpu=0.8 Vmaxpu=1.2 model=1 kW=6.66007 kvar=1.348896117650222 Phases=2

New Load.load_p1ulv13131 conn=wye bus1=p1ulv13131.1.2 kV=0.2080002494301389 Vminpu=0.8 Vmaxpu=1.2 model=1 kW=7.240070000000001 kvar=1.4701589170964355 Phases=2

New Load.load_p1ulv13132 conn=wye bus1=p1ulv13132.1.2 kV=0.2080002494301389 Vminpu=0.8 Vmaxpu=1.2 model=1 kW=6.05006 kvar=1.2285170803553642 Phases=2

New Load.load_p1ulv13133 conn=wye bus1=p1ulv13133.1.2 kV=0.2080002494301389 Vminpu=0.8 Vmaxpu=1.2 model=1 kW=5.68006 kvar=1.1504099629613984 Phases=2

New Load.load_p1ulv13732 conn=wye bus1=p1ulv13732.1.2 kV=0.2080002494301389 Vminpu=0.8 Vmaxpu=1.2 model=1 kW=5.72006 kvar=1.1585113559957074 Phases=2

New Load.load_p1ulv13758 conn=wye bus1=p1ulv13758.1.2 kV=0.2080002494301389 Vminpu=0.8 Vmaxpu=1.2 model=1 kW=6.41006 kvar=1.3016181981836055 Phases=2

New Load.load_p1ulv13759 conn=wye bus1=p1ulv13759.1.2 kV=0.2080002494301389 Vminpu=0.8 Vmaxpu=1.2 model=1 kW=5.94006 kvar=1.2092851802361448 Phases=2

New Load.load_p1ulv13760 conn=wye bus1=p1ulv13760.1.2 kV=0.2080002494301389 Vminpu=0.8 Vmaxpu=1.2 model=1 kW=6.68007 kvar=1.359937383450683 Phases=2

New Load.load_p1ulv13761 conn=wye bus1=p1ulv13761.1.2 kV=0.2080002494301389 Vminpu=0.8 Vmaxpu=1.2 model=1 kW=5.86006 kvar=1.1899359348349032 Phases=2

New Load.load_p1ulv13762 conn=wye bus1=p1ulv13762.1.2 kV=0.2080002494301389 Vminpu=0.8 Vmaxpu=1.2 model=1 kW=6.75007 kvar=1.3706601733857733 Phases=2

New Load.load_p1ulv13767 conn=wye bus1=p1ulv13767.1.2 kV=0.2080002494301389 Vminpu=0.8 Vmaxpu=1.2 model=1 kW=3.82004 kvar=0.7796807647859518 Phases=2

New Load.load_p1ulv14368 conn=wye bus1=p1ulv14368.1.2 kV=0.2080002494301389 Vminpu=0.8 Vmaxpu=1.2 model=1 kW=5.57006 kvar=1.131048923251042 Phases=2

New Load.load_p1ulv14369 conn=wye bus1=p1ulv14369.1.2 kV=0.2080002494301389 Vminpu=0.8 Vmaxpu=1.2 model=1 kW=5.98006 kvar=1.2205468409403772 Phases=2

New Load.load_p1ulv14371 conn=wye bus1=p1ulv14371.1.2 kV=0.2080002494301389 Vminpu=0.8 Vmaxpu=1.2 model=1 kW=6.20006 kvar=1.2589758794504644 Phases=2

New Load.load_p1ulv14394 conn=wye bus1=p1ulv14394.1.2 kV=0.2080002494301389 Vminpu=0.8 Vmaxpu=1.2 model=1 kW=6.42006 kvar=1.300285734096111 Phases=2

New Load.load_p1ulv14395 conn=wye bus1=p1ulv14395.1.2 kV=0.2080002494301389 Vminpu=0.8 Vmaxpu=1.2 model=1 kW=6.80007 kvar=1.3808131064174733 Phases=2

New Load.load_p1ulv14396 conn=wye bus1=p1ulv14396.1.2 kV=0.2080002494301389 Vminpu=0.8 Vmaxpu=1.2 model=1 kW=5.26005 kvar=1.070847855459563 Phases=2

New Load.load_p1ulv14397 conn=wye bus1=p1ulv14397.1.2 kV=0.2080002494301389 Vminpu=0.8 Vmaxpu=1.2 model=1 kW=5.95006 kvar=1.2113209933091376 Phases=2

New Load.load_p1ulv14398 conn=wye bus1=p1ulv14398.1.2 kV=0.2080002494301389 Vminpu=0.8 Vmaxpu=1.2 model=1 kW=6.19006 kvar=1.2601805070609642 Phases=2

New Load.load_p1ulv14399 conn=wye bus1=p1ulv14399.1.2 kV=0.2080002494301389 Vminpu=0.8 Vmaxpu=1.2 model=1 kW=5.50006 kvar=1.119709405024463 Phases=2

New Load.load_p1ulv14400 conn=wye bus1=p1ulv14400.1.2 kV=0.2080002494301389 Vminpu=0.8 Vmaxpu=1.2 model=1 kW=5.770060000000001 kvar=1.1686380972885935 Phases=2

New Load.load_p1ulv14992 conn=wye bus1=p1ulv14992.1.2 kV=0.2080002494301389 Vminpu=0.8 Vmaxpu=1.2 model=1 kW=6.09006 kvar=1.2398223763310365 Phases=2

New Load.load_p1ulv14995 conn=wye bus1=p1ulv14995.1.2 kV=0.2080002494301389 Vminpu=0.8 Vmaxpu=1.2 model=1 kW=5.890060000000001 kvar=1.199106114871181 Phases=2

New Load.load_p1ulv15009 conn=wye bus1=p1ulv15009.1.2 kV=0.2080002494301389 Vminpu=0.8 Vmaxpu=1.2 model=1 kW=6.05006 kvar=1.2285170803553642 Phases=2

New Load.load_p1ulv15010 conn=wye bus1=p1ulv15010.1.2 kV=0.2080002494301389 Vminpu=0.8 Vmaxpu=1.2 model=1 kW=6.52007 kvar=1.3205412420301414 Phases=2

New Load.load_p1ulv15011 conn=wye bus1=p1ulv15011.1.2 kV=0.2080002494301389 Vminpu=0.8 Vmaxpu=1.2 model=1 kW=6.17006 kvar=1.249652027631681 Phases=2

New Load.load_p1ulv15016 conn=wye bus1=p1ulv15016.1.2 kV=0.2080002494301389 Vminpu=0.8 Vmaxpu=1.2 model=1 kW=2.62003 kvar=0.8602321308203738 Phases=2

New Load.load_p1ulv15592 conn=wye bus1=p1ulv15592.1.2 kV=0.2080002494301389 Vminpu=0.8 Vmaxpu=1.2 model=1 kW=6.77007 kvar=1.3711749484945712 Phases=2

New Load.load_p1ulv15596 conn=wye bus1=p1ulv15596.1.2 kV=0.2080002494301389 Vminpu=0.8 Vmaxpu=1.2 model=1 kW=5.93006 kvar=1.2010436694258284 Phases=2

New Load.load_p1ulv15597 conn=wye bus1=p1ulv15597.1.2 kV=0.2080002494301389 Vminpu=0.8 Vmaxpu=1.2 model=1 kW=5.810060000000001 kvar=1.1797830018032032 Phases=2

New Load.load_p1ulv15623 conn=wye bus1=p1ulv15623.1.2 kV=0.2080002494301389 Vminpu=0.8 Vmaxpu=1.2 model=1 kW=7.17007 kvar=1.459692224027329 Phases=2

New Load.load_p1ulv15624 conn=wye bus1=p1ulv15624.1.2 kV=0.2080002494301389 Vminpu=0.8 Vmaxpu=1.2 model=1 kW=6.54007 kvar=1.3314360004287842 Phases=2

New Load.load_p1ulv16236 conn=wye bus1=p1ulv16236.1.2 kV=0.2080002494301389 Vminpu=0.8 Vmaxpu=1.2 model=1 kW=6.820070000000001 kvar=1.3813016897874575 Phases=2

New Load.load_p1ulv16269 conn=wye bus1=p1ulv16269.1.2 kV=0.2080002494301389 Vminpu=0.8 Vmaxpu=1.2 model=1 kW=6.51007 kvar=1.3185158937715642 Phases=2

New Load.load_p1ulv16270 conn=wye bus1=p1ulv16270.1.2 kV=0.2080002494301389 Vminpu=0.8 Vmaxpu=1.2 model=1 kW=7.86008 kvar=1.6001653618769034 Phases=2

New Load.load_p1ulv16905 conn=wye bus1=p1ulv16905.1.2 kV=0.2080002494301389 Vminpu=0.8 Vmaxpu=1.2 model=1 kW=5.32005 kvar=1.0802822275059345 Phases=2

New Load.load_p1ulv16906 conn=wye bus1=p1ulv16906.1.2 kV=0.2080002494301389 Vminpu=0.8 Vmaxpu=1.2 model=1 kW=8.73009 kvar=1.7681472578722188 Phases=2

New Load.load_p1ulv16907 conn=wye bus1=p1ulv16907.1.2 kV=0.2080002494301389 Vminpu=0.8 Vmaxpu=1.2 model=1 kW=5.75006 kvar=1.1706047318492825 Phases=2

New Load.load_p1ulv16929 conn=wye bus1=p1ulv16929.1.2 kV=0.2080002494301389 Vminpu=0.8 Vmaxpu=1.2 model=1 kW=8.540090000000001 kvar=1.7296656409592521 Phases=2

New Load.load_p1ulv16930 conn=wye bus1=p1ulv16930.1.2 kV=0.2080002494301389 Vminpu=0.8 Vmaxpu=1.2 model=1 kW=6.390060000000001 kvar=1.3008967685208197 Phases=2

New Load.load_p1ulv16931 conn=wye bus1=p1ulv16931.1.2 kV=0.2080002494301389 Vminpu=0.8 Vmaxpu=1.2 model=1 kW=5.99006 kvar=1.2194642456011087 Phases=2

New Load.load_p1ulv16932 conn=wye bus1=p1ulv16932.1.2 kV=0.2080002494301389 Vminpu=0.8 Vmaxpu=1.2 model=1 kW=7.95008 kvar=1.6101680683549389 Phases=2

New Load.load_p1ulv17505 conn=wye bus1=p1ulv17505.1.2 kV=0.2080002494301389 Vminpu=0.8 Vmaxpu=1.2 model=1 kW=6.63007 kvar=1.349758318085719 Phases=2

New Load.load_p1ulv17506 conn=wye bus1=p1ulv17506.1.2 kV=0.2080002494301389 Vminpu=0.8 Vmaxpu=1.2 model=1 kW=8.700090000000001 kvar=1.771175695821369 Phases=2

New Load.load_p1ulv17507 conn=wye bus1=p1ulv17507.1.2 kV=0.2080002494301389 Vminpu=0.8 Vmaxpu=1.2 model=1 kW=6.100060000000001 kvar=1.2386700133870643 Phases=2

New Load.load_p1ulv17511 conn=wye bus1=p1ulv17511.1.2 kV=0.2080002494301389 Vminpu=0.8 Vmaxpu=1.2 model=1 kW=7.29007 kvar=1.4803118501281356 Phases=2

New Load.load_p1ulv17545 conn=wye bus1=p1ulv17545.1.2 kV=0.2080002494301389 Vminpu=0.8 Vmaxpu=1.2 model=1 kW=5.75006 kvar=1.1706047318492825 Phases=2

New Load.load_p1ulv17546 conn=wye bus1=p1ulv17546.1.2 kV=0.2080002494301389 Vminpu=0.8 Vmaxpu=1.2 model=1 kW=4.32004 kvar=0.8794793907851697 Phases=2

New Load.load_p1ulv17547 conn=wye bus1=p1ulv17547.1.2 kV=0.2080002494301389 Vminpu=0.8 Vmaxpu=1.2 model=1 kW=6.270060000000001 kvar=1.269905510217453 Phases=2

New Load.load_p1ulv17548 conn=wye bus1=p1ulv17548.1.2 kV=0.2080002494301389 Vminpu=0.8 Vmaxpu=1.2 model=1 kW=6.40006 kvar=1.2995876115772655 Phases=2

New Load.load_p1ulv18171 conn=wye bus1=p1ulv18171.1.2.3 kV=0.48 Vminpu=0.8 Vmaxpu=1.2 model=1 kW=30.330300000000005 kvar=6.1588300946275405 Phases=3

New Load.load_p1ulv18177 conn=wye bus1=p1ulv18177.1.2 kV=0.2080002494301389 Vminpu=0.8 Vmaxpu=1.2 model=1 kW=11.0501 kvar=2.238030079210387 Phases=2

New Load.load_p1ulv18178 conn=wye bus1=p1ulv18178.1.2 kV=0.2080002494301389 Vminpu=0.8 Vmaxpu=1.2 model=1 kW=5.97006 kvar=1.2091450624601374 Phases=2

New Load.load_p1ulv18179 conn=wye bus1=p1ulv18179.1.2 kV=0.2080002494301389 Vminpu=0.8 Vmaxpu=1.2 model=1 kW=6.25006 kvar=1.269128812482165 Phases=2

New Load.load_p1ulv18180 conn=wye bus1=p1ulv18180.1.2 kV=0.2080002494301389 Vminpu=0.8 Vmaxpu=1.2 model=1 kW=7.38007 kvar=1.498587129585196 Phases=2

New Load.load_p1ulv18206 conn=wye bus1=p1ulv18206.1.2 kV=0.2080002494301389 Vminpu=0.8 Vmaxpu=1.2 model=1 kW=7.16007 kvar=1.4501635305790819 Phases=2

New Load.load_p1ulv18207 conn=wye bus1=p1ulv18207.1.2 kV=0.2080002494301389 Vminpu=0.8 Vmaxpu=1.2 model=1 kW=5.850060000000001 kvar=1.19096286257921 Phases=2

New Load.load_p1ulv18844 conn=wye bus1=p1ulv18844.1.2 kV=0.2080002494301389 Vminpu=0.8 Vmaxpu=1.2 model=1 kW=6.67007 kvar=1.3613797967497288 Phases=2

New Load.load_p1ulv18846 conn=wye bus1=p1ulv18846.1.2 kV=0.2080002494301389 Vminpu=0.8 Vmaxpu=1.2 model=1 kW=2.61003 kvar=0.5299891960145702 Phases=2

New Load.load_p1ulv18847 conn=wye bus1=p1ulv18847.1.2 kV=0.2080002494301389 Vminpu=0.8 Vmaxpu=1.2 model=1 kW=6.34006 kvar=1.2907177031558559 Phases=2

New Load.load_p1ulv18848 conn=wye bus1=p1ulv18848.1.2 kV=0.2080002494301389 Vminpu=0.8 Vmaxpu=1.2 model=1 kW=6.83007 kvar=1.3904745795455744 Phases=2

New Load.load_p1ulv18849 conn=wye bus1=p1ulv18849.1.2 kV=0.2080002494301389 Vminpu=0.8 Vmaxpu=1.2 model=1 kW=5.68006 kvar=1.1504099629613984 Phases=2
