New Load.load_p4ulv410 conn=wye bus1=p4ulv410.1.2 kV=0.2080002494301389 Vminpu=0.8 Vmaxpu=1.2 model=1 kW=10.9001 kvar=2.207649855331729 Phases=2

New Load.load_p4ulv411 conn=wye bus1=p4ulv411.1.2 kV=0.2080002494301389 Vminpu=0.8 Vmaxpu=1.2 model=1 kW=12.1001 kvar=2.457030099537515 Phases=2

New Load.load_p4ulv412 conn=wye bus1=p4ulv412.1.2 kV=0.2080002494301389 Vminpu=0.8 Vmaxpu=1.2 model=1 kW=6.56007 kvar=1.3286426350644502 Phases=2

New Load.load_p4ulv415 conn=wye bus1=p4ulv415.1.2 kV=0.2080002494301389 Vminpu=0.8 Vmaxpu=1.2 model=1 kW=12.6501 kvar=2.5687123628862176 Phases=2

New Load.load_p4ulv793 conn=wye bus1=p4ulv793.1.2 kV=0.2080002494301389 Vminpu=0.8 Vmaxpu=1.2 model=1 kW=5.27005 kvar=1.0701292944742342 Phases=2

New Load.load_p4ulv794 conn=wye bus1=p4ulv794.1.2 kV=0.2080002494301389 Vminpu=0.8 Vmaxpu=1.2 model=1 kW=14.2301 kvar=2.8895450466879447 Phases=2

New Load.load_p4ulv803 conn=wye bus1=p4ulv803.1.2 kV=0.2080002494301389 Vminpu=0.8 Vmaxpu=1.2 model=1 kW=7.99008 kvar=1.6182694613892477 Phases=2

New Load.load_p4ulv804 conn=wye bus1=p4ulv804.1.2 kV=0.2080002494301389 Vminpu=0.8 Vmaxpu=1.2 model=1 kW=7.48007 kvar=1.5188929956485966 Phases=2

New Load.load_p4ulv805 conn=wye bus1=p4ulv805.1.2 kV=0.2080002494301389 Vminpu=0.8 Vmaxpu=1.2 model=1 kW=7.240070000000001 kvar=1.4701589170964355 Phases=2

New Load.load_p4ulv806 conn=wye bus1=p4ulv806.1.2 kV=0.2080002494301389 Vminpu=0.8 Vmaxpu=1.2 model=1 kW=8.49008 kvar=1.7195368743181074 Phases=2

New Load.load_p4ulv807 conn=wye bus1=p4ulv807.1.2 kV=0.2080002494301389 Vminpu=0.8 Vmaxpu=1.2 model=1 kW=12.6201 kvar=2.5626206030671974 Phases=2

New Load.load_p4ulv821 conn=wye bus1=p4ulv821.1.2 kV=0.2080002494301389 Vminpu=0.8 Vmaxpu=1.2 model=1 kW=5.19005 kvar=1.0511658729428572 Phases=2

New Load.load_p4ulv1243 conn=wye bus1=p4ulv1243.1.2 kV=0.2080002494301389 Vminpu=0.8 Vmaxpu=1.2 model=1 kW=7.630080000000001 kvar=1.5493538253303036 Phases=2

New Load.load_p4ulv1252 conn=wye bus1=p4ulv1252.1.2 kV=0.2080002494301389 Vminpu=0.8 Vmaxpu=1.2 model=1 kW=7.42007 kvar=1.510587550852148 Phases=2

New Load.load_p4ulv1261 conn=wye bus1=p4ulv1261.1.2 kV=0.2080002494301389 Vminpu=0.8 Vmaxpu=1.2 model=1 kW=3.3000300000000005 kvar=1.0799760953551654 Phases=2

New Load.load_p4ulv1679 conn=wye bus1=p4ulv1679.1.2 kV=0.2080002494301389 Vminpu=0.8 Vmaxpu=1.2 model=1 kW=7.320070000000001 kvar=1.4902294201222208 Phases=2

New Load.load_p4ulv1680 conn=wye bus1=p4ulv1680.1.2 kV=0.2080002494301389 Vminpu=0.8 Vmaxpu=1.2 model=1 kW=8.09008 kvar=1.6385229439750197 Phases=2

New Load.load_p4ulv1681 conn=wye bus1=p4ulv1681.1.2 kV=0.2080002494301389 Vminpu=0.8 Vmaxpu=1.2 model=1 kW=9.05009 kvar=1.837699154017196 Phases=2

New Load.load_p4ulv1684 conn=wye bus1=p4ulv1684.1.2 kV=0.2080002494301389 Vminpu=0.8 Vmaxpu=1.2 model=1 kW=7.76008 kvar=1.5798072311469755 Phases=2

New Load.load_p4ulv1687 conn=wye bus1=p4ulv1687.1.2 kV=0.2080002494301389 Vminpu=0.8 Vmaxpu=1.2 model=1 kW=5.170050000000001 kvar=1.0498234284108339 Phases=2

New Load.load_p4ulv1691 conn=wye bus1=p4ulv1691.1.2 kV=0.2080002494301389 Vminpu=0.8 Vmaxpu=1.2 model=1 kW=5.35005 kvar=1.0891701731164982 Phases=2

New Load.load_p4ulv2059 conn=wye bus1=p4ulv2059.1.2 kV=0.2080002494301389 Vminpu=0.8 Vmaxpu=1.2 model=1 kW=7.83008 kvar=1.5899655574571043 Phases=2

New Load.load_p4ulv2060 conn=wye bus1=p4ulv2060.1.2 kV=0.2080002494301389 Vminpu=0.8 Vmaxpu=1.2 model=1 kW=8.19008 kvar=1.6587764265607916 Phases=2

New Load.load_p4ulv2061 conn=wye bus1=p4ulv2061.1.2 kV=0.2080002494301389 Vminpu=0.8 Vmaxpu=1.2 model=1 kW=8.700090000000001 kvar=1.771175695821369 Phases=2

New Load.load_p4ulv2062 conn=wye bus1=p4ulv2062.1.2 kV=0.2080002494301389 Vminpu=0.8 Vmaxpu=1.2 model=1 kW=5.82006 kvar=1.1787648385814788 Phases=2

New Load.load_p4ulv2063 conn=wye bus1=p4ulv2063.1.2 kV=0.2080002494301389 Vminpu=0.8 Vmaxpu=1.2 model=1 kW=7.880080000000001 kvar=1.6001184904888048 Phases=2

New Load.load_p4ulv2064 conn=wye bus1=p4ulv2064.1.2 kV=0.2080002494301389 Vminpu=0.8 Vmaxpu=1.2 model=1 kW=4.97005 kvar=1.009211696284033 Phases=2

New Load.load_p4ulv2065 conn=wye bus1=p4ulv2065.1.2 kV=0.2080002494301389 Vminpu=0.8 Vmaxpu=1.2 model=1 kW=7.450070000000001 kvar=1.5088986300778207 Phases=2

New Load.load_p4ulv2067 conn=wye bus1=p4ulv2067.1.2 kV=0.2080002494301389 Vminpu=0.8 Vmaxpu=1.2 model=1 kW=9.14009 kvar=1.860751471033051 Phases=2

New Load.load_p4ulv2080 conn=wye bus1=p4ulv2080.1.2 kV=0.2080002494301389 Vminpu=0.8 Vmaxpu=1.2 model=1 kW=5.850060000000001 kvar=1.19096286257921 Phases=2

New Load.load_p4ulv2081 conn=wye bus1=p4ulv2081.1.2 kV=0.2080002494301389 Vminpu=0.8 Vmaxpu=1.2 model=1 kW=3.9600400000000002 kvar=0.810315553811549 Phases=2

New Load.load_p4ulv2082 conn=wye bus1=p4ulv2082.1.2 kV=0.2080002494301389 Vminpu=0.8 Vmaxpu=1.2 model=1 kW=4.55005 kvar=0.9191546616517607 Phases=2

New Load.load_p4ulv2447 conn=wye bus1=p4ulv2447.1.2 kV=0.2080002494301389 Vminpu=0.8 Vmaxpu=1.2 model=1 kW=8.44008 kvar=1.7094101330252216 Phases=2

New Load.load_p4ulv2448 conn=wye bus1=p4ulv2448.1.2 kV=0.2080002494301389 Vminpu=0.8 Vmaxpu=1.2 model=1 kW=8.11008 kvar=1.6510606887017225 Phases=2

New Load.load_p4ulv2451 conn=wye bus1=p4ulv2451.1.2 kV=0.2080002494301389 Vminpu=0.8 Vmaxpu=1.2 model=1 kW=0.570006 kvar=0.12014504223868729 Phases=2

New Load.load_p4ulv2453 conn=wye bus1=p4ulv2453.1.2 kV=0.2080002494301389 Vminpu=0.8 Vmaxpu=1.2 model=1 kW=5.98006 kvar=1.2111704107187142 Phases=2

New Load.load_p4ulv2454 conn=wye bus1=p4ulv2454.1.2 kV=0.2080002494301389 Vminpu=0.8 Vmaxpu=1.2 model=1 kW=7.60008 kvar=1.5392808793047372 Phases=2

New Load.load_p4ulv2892 conn=wye bus1=p4ulv2892.1.2 kV=0.2080002494301389 Vminpu=0.8 Vmaxpu=1.2 model=1 kW=11.9701 kvar=2.4306324736550953 Phases=2

New Load.load_p4ulv2896 conn=wye bus1=p4ulv2896.1.2 kV=0.2080002494301389 Vminpu=0.8 Vmaxpu=1.2 model=1 kW=9.13009 kvar=1.849161188215306 Phases=2

New Load.load_p4ulv2900 conn=wye bus1=p4ulv2900.1.2 kV=0.2080002494301389 Vminpu=0.8 Vmaxpu=1.2 model=1 kW=7.030070000000001 kvar=1.43119084100543 Phases=2

New Load.load_p4ulv2901 conn=wye bus1=p4ulv2901.1.2 kV=0.2080002494301389 Vminpu=0.8 Vmaxpu=1.2 model=1 kW=5.49005 kvar=1.1205344401401856 Phases=2

New Load.load_p4ulv2902 conn=wye bus1=p4ulv2902.1.2 kV=0.2080002494301389 Vminpu=0.8 Vmaxpu=1.2 model=1 kW=9.09009 kvar=1.8505724056680872 Phases=2

New Load.load_p4ulv2903 conn=wye bus1=p4ulv2903.1.2 kV=0.2080002494301389 Vminpu=0.8 Vmaxpu=1.2 model=1 kW=11.4901 kvar=2.3271454025877834 Phases=2

New Load.load_p4ulv2914 conn=wye bus1=p4ulv2914.1.2 kV=0.2080002494301389 Vminpu=0.8 Vmaxpu=1.2 model=1 kW=10.8601 kvar=2.210913355400881 Phases=2

New Load.load_p4ulv3310 conn=wye bus1=p4ulv3310.1.2 kV=0.2080002494301389 Vminpu=0.8 Vmaxpu=1.2 model=1 kW=6.26006 kvar=1.2711593990885048 Phases=2

New Load.load_p4ulv3311 conn=wye bus1=p4ulv3311.1.2 kV=0.2080002494301389 Vminpu=0.8 Vmaxpu=1.2 model=1 kW=10.670100000000001 kvar=2.1722329070140183 Phases=2

New Load.load_p4ulv3313 conn=wye bus1=p4ulv3313.1.2 kV=0.2080002494301389 Vminpu=0.8 Vmaxpu=1.2 model=1 kW=12.510100000000001 kvar=2.540284150397457 Phases=2

New Load.load_p4ulv3314 conn=wye bus1=p4ulv3314.1.2 kV=0.2080002494301389 Vminpu=0.8 Vmaxpu=1.2 model=1 kW=7.55008 kvar=1.5291541380118512 Phases=2

New Load.load_p4ulv3315 conn=wye bus1=p4ulv3315.1.2 kV=0.2080002494301389 Vminpu=0.8 Vmaxpu=1.2 model=1 kW=9.00009 kvar=1.8322500880111523 Phases=2

New Load.load_p4ulv3327 conn=wye bus1=p4ulv3327.1.2 kV=0.2080002494301389 Vminpu=0.8 Vmaxpu=1.2 model=1 kW=5.50006 kvar=1.119709405024463 Phases=2

New Load.load_p4ulv3340 conn=wye bus1=p4ulv3340.1.2 kV=0.2080002494301389 Vminpu=0.8 Vmaxpu=1.2 model=1 kW=8.58009 kvar=1.742261583519214 Phases=2

New Load.load_p4ulv3770 conn=wye bus1=p4ulv3770.1.2 kV=0.2080002494301389 Vminpu=0.8 Vmaxpu=1.2 model=1 kW=8.67009 kvar=1.7605368629762743 Phases=2

New Load.load_p4ulv3771 conn=wye bus1=p4ulv3771.1.2 kV=0.2080002494301389 Vminpu=0.8 Vmaxpu=1.2 model=1 kW=9.370090000000001 kvar=1.8977695464211595 Phases=2

New Load.load_p4ulv3781 conn=wye bus1=p4ulv3781.1.2 kV=0.2080002494301389 Vminpu=0.8 Vmaxpu=1.2 model=1 kW=4.86005 kvar=0.9894153325398525 Phases=2

New Load.load_p4ulv4178 conn=wye bus1=p4ulv4178.1.2 kV=0.2080002494301389 Vminpu=0.8 Vmaxpu=1.2 model=1 kW=8.33008 kvar=1.6914948877741063 Phases=2

New Load.load_p4ulv4179 conn=wye bus1=p4ulv4179.1.2 kV=0.2080002494301389 Vminpu=0.8 Vmaxpu=1.2 model=1 kW=11.2401 kvar=2.2823996513922715 Phases=2

New Load.load_p4ulv4182 conn=wye bus1=p4ulv4182.1.2 kV=0.2080002494301389 Vminpu=0.8 Vmaxpu=1.2 model=1 kW=8.55009 kvar=1.7406384997264774 Phases=2

New Load.load_p4ulv4190 conn=wye bus1=p4ulv4190.1.2 kV=0.2080002494301389 Vminpu=0.8 Vmaxpu=1.2 model=1 kW=4.880050000000001 kvar=0.9909364168269728 Phases=2

New Load.load_p4ulv4191 conn=wye bus1=p4ulv4191.1.2 kV=0.2080002494301389 Vminpu=0.8 Vmaxpu=1.2 model=1 kW=5.51006 kvar=1.1188654036130017 Phases=2

New Load.load_p4ulv4571 conn=wye bus1=p4ulv4571.1.2 kV=0.2080002494301389 Vminpu=0.8 Vmaxpu=1.2 model=1 kW=8.57009 kvar=1.7402309969128738 Phases=2

New Load.load_p4ulv4572 conn=wye bus1=p4ulv4572.1.2 kV=0.2080002494301389 Vminpu=0.8 Vmaxpu=1.2 model=1 kW=7.18007 kvar=1.4617280371003216 Phases=2

New Load.load_p4ulv4578 conn=wye bus1=p4ulv4578.1.2 kV=0.2080002494301389 Vminpu=0.8 Vmaxpu=1.2 model=1 kW=8.58009 kvar=1.742261583519214 Phases=2

New Load.load_p4ulv4579 conn=wye bus1=p4ulv4579.1.2 kV=0.2080002494301389 Vminpu=0.8 Vmaxpu=1.2 model=1 kW=12.0301 kvar=2.4428159932931344 Phases=2

New Load.load_p4ulv4580 conn=wye bus1=p4ulv4580.1.2 kV=0.2080002494301389 Vminpu=0.8 Vmaxpu=1.2 model=1 kW=5.78006 kvar=1.1706634455471703 Phases=2

New Load.load_p4ulv4582 conn=wye bus1=p4ulv4582.1.2 kV=0.2080002494301389 Vminpu=0.8 Vmaxpu=1.2 model=1 kW=8.77009 kvar=1.7808427290396747 Phases=2

New Load.load_p4ulv4583 conn=wye bus1=p4ulv4583.1.2 kV=0.2080002494301389 Vminpu=0.8 Vmaxpu=1.2 model=1 kW=0.580006 kvar=0.1900205897867449 Phases=2

New Load.load_p4ulv4966 conn=wye bus1=p4ulv4966.1.2 kV=0.2080002494301389 Vminpu=0.8 Vmaxpu=1.2 model=1 kW=7.09007 kvar=1.4397001180013347 Phases=2

New Load.load_p4ulv4968 conn=wye bus1=p4ulv4968.1.2 kV=0.2080002494301389 Vminpu=0.8 Vmaxpu=1.2 model=1 kW=9.8201 kvar=1.9889122434053916 Phases=2

New Load.load_p4ulv4969 conn=wye bus1=p4ulv4969.1.2 kV=0.2080002494301389 Vminpu=0.8 Vmaxpu=1.2 model=1 kW=7.79008 kvar=1.581843211031744 Phases=2

New Load.load_p4ulv4970 conn=wye bus1=p4ulv4970.1.2 kV=0.2080002494301389 Vminpu=0.8 Vmaxpu=1.2 model=1 kW=8.28008 kvar=1.6813419547424064 Phases=2

New Load.load_p4ulv4971 conn=wye bus1=p4ulv4971.1.2 kV=0.2080002494301389 Vminpu=0.8 Vmaxpu=1.2 model=1 kW=7.25007 kvar=1.4683916649062767 Phases=2

New Load.load_p4ulv4972 conn=wye bus1=p4ulv4972.1.2 kV=0.2080002494301389 Vminpu=0.8 Vmaxpu=1.2 model=1 kW=7.66008 kvar=1.5594491004170477 Phases=2

New Load.load_p4ulv4973 conn=wye bus1=p4ulv4973.1.2 kV=0.2080002494301389 Vminpu=0.8 Vmaxpu=1.2 model=1 kW=12.6901 kvar=2.5768347093115778 Phases=2

New Load.load_p4ulv4974 conn=wye bus1=p4ulv4974.1.2 kV=0.2080002494301389 Vminpu=0.8 Vmaxpu=1.2 model=1 kW=8.35008 kvar=1.699920202453549 Phases=2

New Load.load_p4ulv4988 conn=wye bus1=p4ulv4988.1.2 kV=0.2080002494301389 Vminpu=0.8 Vmaxpu=1.2 model=1 kW=7.05007 kvar=1.4315777715759745 Phases=2

New Load.load_p4ulv5416 conn=wye bus1=p4ulv5416.1.2 kV=0.2080002494301389 Vminpu=0.8 Vmaxpu=1.2 model=1 kW=8.03008 kvar=1.630577289583905 Phases=2

New Load.load_p4ulv5417 conn=wye bus1=p4ulv5417.1.2 kV=0.2080002494301389 Vminpu=0.8 Vmaxpu=1.2 model=1 kW=8.09008 kvar=1.6385229439750197 Phases=2

New Load.load_p4ulv5418 conn=wye bus1=p4ulv5418.1.2 kV=0.2080002494301389 Vminpu=0.8 Vmaxpu=1.2 model=1 kW=8.97009 kvar=1.8214544611664756 Phases=2

New Load.load_p4ulv5419 conn=wye bus1=p4ulv5419.1.2 kV=0.2080002494301389 Vminpu=0.8 Vmaxpu=1.2 model=1 kW=7.34007 kvar=1.4904647831598359 Phases=2

New Load.load_p4ulv5852 conn=wye bus1=p4ulv5852.1.2 kV=0.2080002494301389 Vminpu=0.8 Vmaxpu=1.2 model=1 kW=6.81007 kvar=1.37927634152888 Phases=2

New Load.load_p4ulv5853 conn=wye bus1=p4ulv5853.1.2 kV=0.2080002494301389 Vminpu=0.8 Vmaxpu=1.2 model=1 kW=8.21008 kvar=1.6714188194316502 Phases=2

New Load.load_p4ulv5854 conn=wye bus1=p4ulv5854.1.2 kV=0.2080002494301389 Vminpu=0.8 Vmaxpu=1.2 model=1 kW=10.4101 kvar=2.1084077906614467 Phases=2

New Load.load_p4ulv5855 conn=wye bus1=p4ulv5855.1.2 kV=0.2080002494301389 Vminpu=0.8 Vmaxpu=1.2 model=1 kW=8.21008 kvar=1.6714188194316502 Phases=2

New Load.load_p4ulv5856 conn=wye bus1=p4ulv5856.1.2 kV=0.2080002494301389 Vminpu=0.8 Vmaxpu=1.2 model=1 kW=5.63006 kvar=1.1402832216685126 Phases=2

New Load.load_p4ulv5858 conn=wye bus1=p4ulv5858.1.2 kV=0.2080002494301389 Vminpu=0.8 Vmaxpu=1.2 model=1 kW=6.90007 kvar=1.4011189724808741 Phases=2

New Load.load_p4ulv5861 conn=wye bus1=p4ulv5861.1.2 kV=0.2080002494301389 Vminpu=0.8 Vmaxpu=1.2 model=1 kW=4.89005 kvar=1.6107495774651717 Phases=2

New Load.load_p4ulv5866 conn=wye bus1=p4ulv5866.1.2 kV=0.2080002494301389 Vminpu=0.8 Vmaxpu=1.2 model=1 kW=6.09006 kvar=1.2398223763310365 Phases=2

New Load.load_p4ulv6261 conn=wye bus1=p4ulv6261.1.2 kV=0.2080002494301389 Vminpu=0.8 Vmaxpu=1.2 model=1 kW=7.80008 kvar=1.579787844476281 Phases=2

New Load.load_p4ulv6262 conn=wye bus1=p4ulv6262.1.2 kV=0.2080002494301389 Vminpu=0.8 Vmaxpu=1.2 model=1 kW=8.34008 kvar=1.6891566504394495 Phases=2

New Load.load_p4ulv6263 conn=wye bus1=p4ulv6263.1.2 kV=0.2080002494301389 Vminpu=0.8 Vmaxpu=1.2 model=1 kW=8.38008 kvar=1.7016478208058066 Phases=2

New Load.load_p4ulv6264 conn=wye bus1=p4ulv6264.1.2 kV=0.2080002494301389 Vminpu=0.8 Vmaxpu=1.2 model=1 kW=8.94009 kvar=1.8200352095731958 Phases=2

New Load.load_p4ulv6272 conn=wye bus1=p4ulv6272.1.2 kV=0.2080002494301389 Vminpu=0.8 Vmaxpu=1.2 model=1 kW=7.9600800000000005 kvar=1.6205234926068308 Phases=2

New Load.load_p4ulv6273 conn=wye bus1=p4ulv6273.1.2 kV=0.2080002494301389 Vminpu=0.8 Vmaxpu=1.2 model=1 kW=6.24006 kvar=1.270359572425928 Phases=2

New Load.load_p4ulv6673 conn=wye bus1=p4ulv6673.1.2 kV=0.2080002494301389 Vminpu=0.8 Vmaxpu=1.2 model=1 kW=7.05007 kvar=1.4315777715759745 Phases=2

New Load.load_p4ulv6674 conn=wye bus1=p4ulv6674.1.2 kV=0.2080002494301389 Vminpu=0.8 Vmaxpu=1.2 model=1 kW=7.90008 kvar=1.600041327062053 Phases=2

New Load.load_p4ulv6675 conn=wye bus1=p4ulv6675.1.2 kV=0.2080002494301389 Vminpu=0.8 Vmaxpu=1.2 model=1 kW=7.05007 kvar=1.4315777715759745 Phases=2

New Load.load_p4ulv6676 conn=wye bus1=p4ulv6676.1.2 kV=0.2080002494301389 Vminpu=0.8 Vmaxpu=1.2 model=1 kW=9.9601 kvar=2.022484565780746 Phases=2

New Load.load_p4ulv7074 conn=wye bus1=p4ulv7074.1.2 kV=0.2080002494301389 Vminpu=0.8 Vmaxpu=1.2 model=1 kW=5.05005 kvar=1.0201595584827583 Phases=2

New Load.load_p4ulv7075 conn=wye bus1=p4ulv7075.1.2 kV=0.2080002494301389 Vminpu=0.8 Vmaxpu=1.2 model=1 kW=8.50009 kvar=1.7304594343615136 Phases=2

New Load.load_p4ulv7079 conn=wye bus1=p4ulv7079.1.2 kV=0.2080002494301389 Vminpu=0.8 Vmaxpu=1.2 model=1 kW=7.29007 kvar=1.4803118501281356 Phases=2

New Load.load_p4ulv7493 conn=wye bus1=p4ulv7493.1.2 kV=0.2080002494301389 Vminpu=0.8 Vmaxpu=1.2 model=1 kW=2.08002 kvar=0.4201844110128231 Phases=2

New Load.load_p4ulv7498 conn=wye bus1=p4ulv7498.1.2 kV=0.2080002494301389 Vminpu=0.8 Vmaxpu=1.2 model=1 kW=9.03009 kvar=1.8289077056295349 Phases=2

New Load.load_p4ulv7500 conn=wye bus1=p4ulv7500.1.2 kV=0.2080002494301389 Vminpu=0.8 Vmaxpu=1.2 model=1 kW=8.620090000000001 kvar=1.750383929944574 Phases=2

New Load.load_p4ulv7501 conn=wye bus1=p4ulv7501.1.2 kV=0.2080002494301389 Vminpu=0.8 Vmaxpu=1.2 model=1 kW=8.30008 kvar=1.6810552574051407 Phases=2

New Load.load_p4ulv7503 conn=wye bus1=p4ulv7503.1.2 kV=0.2080002494301389 Vminpu=0.8 Vmaxpu=1.2 model=1 kW=7.280070000000001 kvar=1.4782812635217957 Phases=2

New Load.load_p4ulv7509 conn=wye bus1=p4ulv7509.1.2 kV=0.2080002494301389 Vminpu=0.8 Vmaxpu=1.2 model=1 kW=8.230080000000001 kvar=1.6711890217107062 Phases=2

New Load.load_p4ulv7510 conn=wye bus1=p4ulv7510.1.2 kV=0.2080002494301389 Vminpu=0.8 Vmaxpu=1.2 model=1 kW=7.56008 kvar=1.5311794862704282 Phases=2

New Load.load_p4ulv7511 conn=wye bus1=p4ulv7511.1.2 kV=0.2080002494301389 Vminpu=0.8 Vmaxpu=1.2 model=1 kW=9.7301 kvar=1.9706841090781968 Phases=2

New Load.load_p4ulv7525 conn=wye bus1=p4ulv7525.1.2 kV=0.2080002494301389 Vminpu=0.8 Vmaxpu=1.2 model=1 kW=6.12006 kvar=2.0093938827221587 Phases=2

New Load.load_p4ulv7940 conn=wye bus1=p4ulv7940.1.2 kV=0.2080002494301389 Vminpu=0.8 Vmaxpu=1.2 model=1 kW=9.8001 kvar=1.9899951800793054 Phases=2

New Load.load_p4ulv7943 conn=wye bus1=p4ulv7943.1.2 kV=0.2080002494301389 Vminpu=0.8 Vmaxpu=1.2 model=1 kW=8.42008 kvar=1.709770167231167 Phases=2

New Load.load_p4ulv7949 conn=wye bus1=p4ulv7949.1.2 kV=0.2080002494301389 Vminpu=0.8 Vmaxpu=1.2 model=1 kW=8.41008 kvar=1.7121350808915057 Phases=2

New Load.load_p4ulv7950 conn=wye bus1=p4ulv7950.1.2 kV=0.2080002494301389 Vminpu=0.8 Vmaxpu=1.2 model=1 kW=7.64008 kvar=1.5513844119366436 Phases=2

New Load.load_p4ulv8380 conn=wye bus1=p4ulv8380.1.2 kV=0.2080002494301389 Vminpu=0.8 Vmaxpu=1.2 model=1 kW=8.11008 kvar=1.6510606887017225 Phases=2

New Load.load_p4ulv8381 conn=wye bus1=p4ulv8381.1.2 kV=0.2080002494301389 Vminpu=0.8 Vmaxpu=1.2 model=1 kW=11.430100000000001 kvar=2.3209807969127323 Phases=2

New Load.load_p4ulv8383 conn=wye bus1=p4ulv8383.1.2 kV=0.2080002494301389 Vminpu=0.8 Vmaxpu=1.2 model=1 kW=7.72008 kvar=1.5716639788550044 Phases=2

New Load.load_p4ulv8386 conn=wye bus1=p4ulv8386.1.2 kV=0.2080002494301389 Vminpu=0.8 Vmaxpu=1.2 model=1 kW=8.18008 kvar=1.6610360886790059 Phases=2

New Load.load_p4ulv8387 conn=wye bus1=p4ulv8387.1.2 kV=0.2080002494301389 Vminpu=0.8 Vmaxpu=1.2 model=1 kW=7.00007 kvar=1.4214248385442743 Phases=2

New Load.load_p4ulv8388 conn=wye bus1=p4ulv8388.1.2 kV=0.2080002494301389 Vminpu=0.8 Vmaxpu=1.2 model=1 kW=7.57008 kvar=1.5411267827601127 Phases=2

New Load.load_p4ulv8394 conn=wye bus1=p4ulv8394.1.2 kV=0.2080002494301389 Vminpu=0.8 Vmaxpu=1.2 model=1 kW=14.3901 kvar=2.922034432389385 Phases=2

New Load.load_p4ulv8395 conn=wye bus1=p4ulv8395.1.2 kV=0.2080002494301389 Vminpu=0.8 Vmaxpu=1.2 model=1 kW=9.09009 kvar=1.8505724056680872 Phases=2

New Load.load_p4ulv8789 conn=wye bus1=p4ulv8789.1.2 kV=0.2080002494301389 Vminpu=0.8 Vmaxpu=1.2 model=1 kW=11.8501 kvar=2.4124588496271655 Phases=2

New Load.load_p4ulv8790 conn=wye bus1=p4ulv8790.1.2 kV=0.2080002494301389 Vminpu=0.8 Vmaxpu=1.2 model=1 kW=6.85007 kvar=1.3909660394491736 Phases=2

New Load.load_p4ulv8791 conn=wye bus1=p4ulv8791.1.2 kV=0.2080002494301389 Vminpu=0.8 Vmaxpu=1.2 model=1 kW=10.6601 kvar=2.170197093941025 Phases=2

New Load.load_p4ulv8801 conn=wye bus1=p4ulv8801.1.2 kV=0.2080002494301389 Vminpu=0.8 Vmaxpu=1.2 model=1 kW=6.17006 kvar=1.249652027631681 Phases=2

New Load.load_p4ulv8813 conn=wye bus1=p4ulv8813.1.2 kV=0.2080002494301389 Vminpu=0.8 Vmaxpu=1.2 model=1 kW=17.7802 kvar=3.6104235978047234 Phases=2

New Load.load_p4ulv9191 conn=wye bus1=p4ulv9191.1.2 kV=0.2080002494301389 Vminpu=0.8 Vmaxpu=1.2 model=1 kW=6.60007 kvar=1.3402013742906727 Phases=2

New Load.load_p4ulv9192 conn=wye bus1=p4ulv9192.1.2 kV=0.2080002494301389 Vminpu=0.8 Vmaxpu=1.2 model=1 kW=6.75007 kvar=1.3706601733857733 Phases=2

New Load.load_p4ulv9193 conn=wye bus1=p4ulv9193.1.2 kV=0.2080002494301389 Vminpu=0.8 Vmaxpu=1.2 model=1 kW=8.34008 kvar=1.6891566504394495 Phases=2

New Load.load_p4ulv9194 conn=wye bus1=p4ulv9194.1.2 kV=0.2080002494301389 Vminpu=0.8 Vmaxpu=1.2 model=1 kW=9.27009 kvar=1.8823720593566768 Phases=2

New Load.load_p4ulv9196 conn=wye bus1=p4ulv9196.1.2 kV=0.2080002494301389 Vminpu=0.8 Vmaxpu=1.2 model=1 kW=8.43008 kvar=1.7118007538375068 Phases=2

New Load.load_p4ulv9197 conn=wye bus1=p4ulv9197.1.2 kV=0.2080002494301389 Vminpu=0.8 Vmaxpu=1.2 model=1 kW=7.59008 kvar=1.5412314789049433 Phases=2

New Load.load_p4ulv9198 conn=wye bus1=p4ulv9198.1.2 kV=0.2080002494301389 Vminpu=0.8 Vmaxpu=1.2 model=1 kW=7.200070000000001 kvar=1.4582649236133909 Phases=2

New Load.load_p4ulv9199 conn=wye bus1=p4ulv9199.1.2 kV=0.2080002494301389 Vminpu=0.8 Vmaxpu=1.2 model=1 kW=9.17009 kvar=1.8620661932932765 Phases=2

New Load.load_p4ulv9207 conn=wye bus1=p4ulv9207.1.2 kV=0.2080002494301389 Vminpu=0.8 Vmaxpu=1.2 model=1 kW=7.29007 kvar=1.4803118501281356 Phases=2

New Load.load_p4ulv9210 conn=wye bus1=p4ulv9210.1.2 kV=0.2080002494301389 Vminpu=0.8 Vmaxpu=1.2 model=1 kW=5.82006 kvar=1.1787648385814788 Phases=2

New Load.load_p4ulv9211 conn=wye bus1=p4ulv9211.1.2 kV=0.2080002494301389 Vminpu=0.8 Vmaxpu=1.2 model=1 kW=1.21001 kvar=0.25010028697944336 Phases=2

New Load.load_p4ulv9632 conn=wye bus1=p4ulv9632.1.2 kV=0.2080002494301389 Vminpu=0.8 Vmaxpu=1.2 model=1 kW=10.6201 kvar=2.1620538416490547 Phases=2

New Load.load_p4ulv9633 conn=wye bus1=p4ulv9633.1.2 kV=0.2080002494301389 Vminpu=0.8 Vmaxpu=1.2 model=1 kW=8.790090000000001 kvar=1.7802993474236821 Phases=2

New Load.load_p4ulv9634 conn=wye bus1=p4ulv9634.1.2 kV=0.2080002494301389 Vminpu=0.8 Vmaxpu=1.2 model=1 kW=6.18006 kvar=1.2613673959495373 Phases=2

New Load.load_p4ulv9642 conn=wye bus1=p4ulv9642.1.2 kV=0.2080002494301389 Vminpu=0.8 Vmaxpu=1.2 model=1 kW=7.66008 kvar=1.5594491004170477 Phases=2

New Load.load_p4ulv9646 conn=wye bus1=p4ulv9646.1.2 kV=0.2080002494301389 Vminpu=0.8 Vmaxpu=1.2 model=1 kW=5.10005 kvar=1.0409343578723245 Phases=2

New Load.load_p4ulv10056 conn=wye bus1=p4ulv10056.1.2 kV=0.2080002494301389 Vminpu=0.8 Vmaxpu=1.2 model=1 kW=5.26005 kvar=1.070847855459563 Phases=2

New Load.load_p4ulv10061 conn=wye bus1=p4ulv10061.1.2 kV=0.2080002494301389 Vminpu=0.8 Vmaxpu=1.2 model=1 kW=9.9601 kvar=2.022484565780746 Phases=2

New Load.load_p4ulv10062 conn=wye bus1=p4ulv10062.1.2 kV=0.2080002494301389 Vminpu=0.8 Vmaxpu=1.2 model=1 kW=8.55009 kvar=1.7406384997264774 Phases=2

New Load.load_p4ulv10063 conn=wye bus1=p4ulv10063.1.2 kV=0.2080002494301389 Vminpu=0.8 Vmaxpu=1.2 model=1 kW=9.14009 kvar=1.860751471033051 Phases=2

New Load.load_p4ulv10064 conn=wye bus1=p4ulv10064.1.2 kV=0.2080002494301389 Vminpu=0.8 Vmaxpu=1.2 model=1 kW=9.21009 kvar=1.8701885397186364 Phases=2

New Load.load_p4ulv10070 conn=wye bus1=p4ulv10070.1.2 kV=0.2080002494301389 Vminpu=0.8 Vmaxpu=1.2 model=1 kW=5.82006 kvar=1.1787648385814788 Phases=2

New Load.load_p4ulv10072 conn=wye bus1=p4ulv10072.1.2 kV=0.2080002494301389 Vminpu=0.8 Vmaxpu=1.2 model=1 kW=7.97008 kvar=1.6183937699458648 Phases=2

New Load.load_p4ulv10084 conn=wye bus1=p4ulv10084.1.2.3 kV=0.48 Vminpu=0.8 Vmaxpu=1.2 model=1 kW=66.1707 kvar=13.436533715214507 Phases=3

New Load.load_p4ulv10480 conn=wye bus1=p4ulv10480.1.2 kV=0.2080002494301389 Vminpu=0.8 Vmaxpu=1.2 model=1 kW=10.5301 kvar=2.1382280023421285 Phases=2

New Load.load_p4ulv10481 conn=wye bus1=p4ulv10481.1.2 kV=0.2080002494301389 Vminpu=0.8 Vmaxpu=1.2 model=1 kW=7.490070000000001 kvar=1.5209235822549367 Phases=2

New Load.load_p4ulv10482 conn=wye bus1=p4ulv10482.1.2 kV=0.2080002494301389 Vminpu=0.8 Vmaxpu=1.2 model=1 kW=11.170100000000001 kvar=2.2681855451478916 Phases=2

New Load.load_p4ulv10492 conn=wye bus1=p4ulv10492.1.2 kV=0.2080002494301389 Vminpu=0.8 Vmaxpu=1.2 model=1 kW=6.88007 kvar=1.4006536449105385 Phases=2

New Load.load_p4ulv10891 conn=wye bus1=p4ulv10891.1.2 kV=0.2080002494301389 Vminpu=0.8 Vmaxpu=1.2 model=1 kW=7.00007 kvar=1.4214248385442743 Phases=2

New Load.load_p4ulv10894 conn=wye bus1=p4ulv10894.1.2 kV=0.2080002494301389 Vminpu=0.8 Vmaxpu=1.2 model=1 kW=6.36006 kvar=1.2914652651519052 Phases=2

New Load.load_p4ulv10895 conn=wye bus1=p4ulv10895.1.2 kV=0.2080002494301389 Vminpu=0.8 Vmaxpu=1.2 model=1 kW=7.13007 kvar=1.4515489717353578 Phases=2

New Load.load_p4ulv10896 conn=wye bus1=p4ulv10896.1.2 kV=0.2080002494301389 Vminpu=0.8 Vmaxpu=1.2 model=1 kW=9.26009 kvar=1.880341472750337 Phases=2

New Load.load_p4ulv11336 conn=wye bus1=p4ulv11336.1.2 kV=0.2080002494301389 Vminpu=0.8 Vmaxpu=1.2 model=1 kW=7.94008 kvar=1.608142720096362 Phases=2

New Load.load_p4ulv11337 conn=wye bus1=p4ulv11337.1.2 kV=0.2080002494301389 Vminpu=0.8 Vmaxpu=1.2 model=1 kW=8.19008 kvar=1.6587764265607916 Phases=2

New Load.load_p4ulv11338 conn=wye bus1=p4ulv11338.1.2 kV=0.2080002494301389 Vminpu=0.8 Vmaxpu=1.2 model=1 kW=6.98007 kvar=1.4210117756404663 Phases=2

New Load.load_p4ulv11339 conn=wye bus1=p4ulv11339.1.2 kV=0.2080002494301389 Vminpu=0.8 Vmaxpu=1.2 model=1 kW=7.37007 kvar=1.5004084854871844 Phases=2

New Load.load_p4ulv11340 conn=wye bus1=p4ulv11340.1.2 kV=0.2080002494301389 Vminpu=0.8 Vmaxpu=1.2 model=1 kW=8.10008 kvar=1.640548292233597 Phases=2

New Load.load_p4ulv11341 conn=wye bus1=p4ulv11341.1.2 kV=0.2080002494301389 Vminpu=0.8 Vmaxpu=1.2 model=1 kW=9.07009 kvar=1.841760327229876 Phases=2

New Load.load_p4ulv11342 conn=wye bus1=p4ulv11342.1.2 kV=0.2080002494301389 Vminpu=0.8 Vmaxpu=1.2 model=1 kW=12.2101 kvar=2.479366552207256 Phases=2

New Load.load_p4ulv11355 conn=wye bus1=p4ulv11355.1.2 kV=0.2080002494301389 Vminpu=0.8 Vmaxpu=1.2 model=1 kW=17.4902 kvar=3.551536586220862 Phases=2

New Load.load_p4ulv11766 conn=wye bus1=p4ulv11766.1.2 kV=0.2080002494301389 Vminpu=0.8 Vmaxpu=1.2 model=1 kW=11.3201 kvar=2.298644344242992 Phases=2

New Load.load_p4ulv11767 conn=wye bus1=p4ulv11767.1.2 kV=0.2080002494301389 Vminpu=0.8 Vmaxpu=1.2 model=1 kW=10.090100000000001 kvar=2.048882191663167 Phases=2

New Load.load_p4ulv11768 conn=wye bus1=p4ulv11768.1.2 kV=0.2080002494301389 Vminpu=0.8 Vmaxpu=1.2 model=1 kW=6.16006 kvar=1.2508535330251045 Phases=2

New Load.load_p4ulv11771 conn=wye bus1=p4ulv11771.1.2 kV=0.2080002494301389 Vminpu=0.8 Vmaxpu=1.2 model=1 kW=9.7901 kvar=1.9879645934729655 Phases=2

New Load.load_p4ulv11772 conn=wye bus1=p4ulv11772.1.2 kV=0.2080002494301389 Vminpu=0.8 Vmaxpu=1.2 model=1 kW=7.11007 kvar=2.339489074504179 Phases=2

New Load.load_p4ulv11775 conn=wye bus1=p4ulv11775.1.2 kV=0.2080002494301389 Vminpu=0.8 Vmaxpu=1.2 model=1 kW=8.84009 kvar=1.7904260887165682 Phases=2

New Load.load_p4ulv12211 conn=wye bus1=p4ulv12211.1.2 kV=0.2080002494301389 Vminpu=0.8 Vmaxpu=1.2 model=1 kW=3.88004 kvar=0.7899036155734878 Phases=2

New Load.load_p4ulv12212 conn=wye bus1=p4ulv12212.1.2 kV=0.2080002494301389 Vminpu=0.8 Vmaxpu=1.2 model=1 kW=7.38007 kvar=1.498587129585196 Phases=2

New Load.load_p4ulv12213 conn=wye bus1=p4ulv12213.1.2 kV=0.2080002494301389 Vminpu=0.8 Vmaxpu=1.2 model=1 kW=7.60008 kvar=1.5392808793047372 Phases=2

New Load.load_p4ulv12214 conn=wye bus1=p4ulv12214.1.2 kV=0.2080002494301389 Vminpu=0.8 Vmaxpu=1.2 model=1 kW=9.30009 kvar=1.888463819175697 Phases=2

New Load.load_p4ulv12215 conn=wye bus1=p4ulv12215.1.2 kV=0.2080002494301389 Vminpu=0.8 Vmaxpu=1.2 model=1 kW=9.760100000000001 kvar=1.9818728336539455 Phases=2

New Load.load_p4ulv12217 conn=wye bus1=p4ulv12217.1.2 kV=0.2080002494301389 Vminpu=0.8 Vmaxpu=1.2 model=1 kW=6.79007 kvar=1.3787825198111334 Phases=2

New Load.load_p4ulv12218 conn=wye bus1=p4ulv12218.1.2 kV=0.2080002494301389 Vminpu=0.8 Vmaxpu=1.2 model=1 kW=11.5301 kvar=2.3412866629761324 Phases=2

New Load.load_p4ulv12219 conn=wye bus1=p4ulv12219.1.2 kV=0.2080002494301389 Vminpu=0.8 Vmaxpu=1.2 model=1 kW=13.7201 kvar=2.793155894276814 Phases=2

New Load.load_p4ulv12227 conn=wye bus1=p4ulv12227.1.2 kV=0.2080002494301389 Vminpu=0.8 Vmaxpu=1.2 model=1 kW=10.2401 kvar=2.079340990758267 Phases=2

New Load.load_p4ulv12228 conn=wye bus1=p4ulv12228.1.2 kV=0.2080002494301389 Vminpu=0.8 Vmaxpu=1.2 model=1 kW=7.10007 kvar=1.4417307046076748 Phases=2

New Load.load_p4ulv12229 conn=wye bus1=p4ulv12229.1.2 kV=0.2080002494301389 Vminpu=0.8 Vmaxpu=1.2 model=1 kW=8.04008 kvar=1.6283962026821337 Phases=2

New Load.load_p4ulv12638 conn=wye bus1=p4ulv12638.1.2 kV=0.2080002494301389 Vminpu=0.8 Vmaxpu=1.2 model=1 kW=10.510100000000001 kvar=2.139659897846134 Phases=2

New Load.load_p4ulv12645 conn=wye bus1=p4ulv12645.1.2 kV=0.2080002494301389 Vminpu=0.8 Vmaxpu=1.2 model=1 kW=8.51009 kvar=1.7280474772748335 Phases=2

New Load.load_p4ulv12648 conn=wye bus1=p4ulv12648.1.2 kV=0.2080002494301389 Vminpu=0.8 Vmaxpu=1.2 model=1 kW=8.91009 kvar=1.8092709415284354 Phases=2

New Load.load_p4ulv12649 conn=wye bus1=p4ulv12649.1.2 kV=0.2080002494301389 Vminpu=0.8 Vmaxpu=1.2 model=1 kW=7.030070000000001 kvar=1.43119084100543 Phases=2

New Load.load_p4ulv12652 conn=wye bus1=p4ulv12652.1.2 kV=0.2080002494301389 Vminpu=0.8 Vmaxpu=1.2 model=1 kW=8.30008 kvar=1.689741137088585 Phases=2

New Load.load_p4ulv12661 conn=wye bus1=p4ulv12661.1.2 kV=0.2080002494301389 Vminpu=0.8 Vmaxpu=1.2 model=1 kW=5.25005 kvar=1.0688120423865706 Phases=2

New Load.load_p4ulv13096 conn=wye bus1=p4ulv13096.1.2 kV=0.2080002494301389 Vminpu=0.8 Vmaxpu=1.2 model=1 kW=9.42009 kvar=1.9078962877140453 Phases=2

New Load.load_p4ulv13097 conn=wye bus1=p4ulv13097.1.2 kV=0.2080002494301389 Vminpu=0.8 Vmaxpu=1.2 model=1 kW=1.7200200000000003 kvar=0.3501639201809029 Phases=2

New Load.load_p4ulv13098 conn=wye bus1=p4ulv13098.1.2 kV=0.2080002494301389 Vminpu=0.8 Vmaxpu=1.2 model=1 kW=9.11009 kvar=1.8498826736552363 Phases=2

New Load.load_p4ulv13105 conn=wye bus1=p4ulv13105.1.2 kV=0.2080002494301389 Vminpu=0.8 Vmaxpu=1.2 model=1 kW=4.450040000000001 kvar=0.898951662187625 Phases=2

New Load.load_p4ulv13517 conn=wye bus1=p4ulv13517.1.2 kV=0.2080002494301389 Vminpu=0.8 Vmaxpu=1.2 model=1 kW=9.290090000000001 kvar=1.8912886671279427 Phases=2

New Load.load_p4ulv13518 conn=wye bus1=p4ulv13518.1.2 kV=0.2080002494301389 Vminpu=0.8 Vmaxpu=1.2 model=1 kW=8.58009 kvar=1.742261583519214 Phases=2

New Load.load_p4ulv13519 conn=wye bus1=p4ulv13519.1.2 kV=0.2080002494301389 Vminpu=0.8 Vmaxpu=1.2 model=1 kW=8.42008 kvar=1.709770167231167 Phases=2

New Load.load_p4ulv13520 conn=wye bus1=p4ulv13520.1.2 kV=0.2080002494301389 Vminpu=0.8 Vmaxpu=1.2 model=1 kW=6.81007 kvar=1.37927634152888 Phases=2

New Load.load_p4ulv13528 conn=wye bus1=p4ulv13528.1.2 kV=0.2080002494301389 Vminpu=0.8 Vmaxpu=1.2 model=1 kW=4.87005 kvar=0.9889058302206326 Phases=2

New Load.load_p4ulv13550 conn=wye bus1=p4ulv13550.1.2 kV=0.2080002494301389 Vminpu=0.8 Vmaxpu=1.2 model=1 kW=6.780070000000001 kvar=1.3802955141806108 Phases=2
