New Line.l(r:p1udt78lv-p1ulv8945) Units=km Length=0.0311409 bus1=p1udt78lv.1.2 bus2=p1ulv8945.1.2 switch=n enabled=y phases=2 Linecode=1P_UG_AL_1/0_Brenau_0_416_0_2_2_2_2

New Line.l(r:p1udt78lv-p1ulv26038) Units=km Length=0.0272986 bus1=p1udt78lv.1.2 bus2=p1ulv26038.1.2 switch=n enabled=y phases=2 Linecode=1P_UG_AL_1/0_Brenau_0_416_0_2_2_2_2

New Line.l(r:p1udm248-p1ulv79) Units=km Length=0.01868 bus1=p1udm248.1.2 bus2=p1ulv79.1.2 switch=n enabled=y phases=2 Linecode=1P_UG_AL_1/0_Brenau_0_416_0_2_2_2_2

New Line.l(r:p1udm248-p1udt78lv) Units=km Length=0.009715650000000001 bus1=p1udt78lv.1.2 bus2=p1udm248.1.2 switch=n enabled=y phases=2 Linecode=1P_UG_AL_1/0_Brenau_0_416_0_2_2_2_2

New Line.l(r:p1udt79lv-p1ulv19036) Units=km Length=0.018325900000000003 bus1=p1udt79lv.1.2 bus2=p1ulv19036.1.2 switch=n enabled=y phases=2 Linecode=1P_UG_AL_1/0_Brenau_0_416_0_2_2_2_2

New Line.l(r:p1udt79lv-p1ulv19037) Units=km Length=0.0164899 bus1=p1udt79lv.1.2 bus2=p1ulv19037.1.2 switch=n enabled=y phases=2 Linecode=1P_UG_AL_1/0_Brenau_0_416_0_2_2_2_2

New Line.l(r:p1udm251-p1ulv80) Units=km Length=0.0178107 bus1=p1udm251.1.2 bus2=p1ulv80.1.2 switch=n enabled=y phases=2 Linecode=1P_UG_AL_1/0_Brenau_0_416_0_2_2_2_2

New Line.l(r:p1udm252-p1ulv3305) Units=km Length=0.0166495 bus1=p1udm252.1.2 bus2=p1ulv3305.1.2 switch=n enabled=y phases=2 Linecode=1P_UG_AL_1/0_Brenau_0_416_0_2_2_2_2

New Line.l(r:p1udm251-p1udm252) Units=km Length=0.00910741 bus1=p1udm251.1.2 bus2=p1udm252.1.2 switch=n enabled=y phases=2 Linecode=1P_UG_AL_1/0_Brenau_0_416_0_2_2_2_2

New Line.l(r:p1udm251-p1udt79lv) Units=km Length=0.00911061 bus1=p1udt79lv.1.2 bus2=p1udm251.1.2 switch=n enabled=y phases=2 Linecode=1P_UG_AL_4/0_Sweetbriar_0_416_0_2_2_2_2

New Line.l(r:p1udm255-p1ulv50617) Units=km Length=0.019456800000000003 bus1=p1udm255.1.2 bus2=p1ulv50617.1.2 switch=n enabled=y phases=2 Linecode=1P_UG_AL_1/0_Brenau_0_416_0_2_2_2_2

New Line.l(r:p1udm255-p1udt79lv) Units=km Length=0.0283741 bus1=p1udt79lv.1.2 bus2=p1udm255.1.2 switch=n enabled=y phases=2 Linecode=1P_UG_AL_1/0_Brenau_0_416_0_2_2_2_2

New Line.l(r:p1udt83lv-p1ulv84) Units=km Length=0.0156141 bus1=p1udt83lv.1.2 bus2=p1ulv84.1.2 switch=n enabled=y phases=2 Linecode=1P_UG_AL_1/0_Brenau_0_416_0_2_2_2_2

New Line.l(r:p1udm262-p1ulv13319) Units=km Length=0.0172908 bus1=p1udm262.1.2 bus2=p1ulv13319.1.2 switch=n enabled=y phases=2 Linecode=1P_UG_AL_1/0_Brenau_0_416_0_2_2_2_2

New Line.l(r:p1udm263-p1ulv16422) Units=km Length=0.0159656 bus1=p1udm263.1.2 bus2=p1ulv16422.1.2 switch=n enabled=y phases=2 Linecode=1P_UG_AL_1/0_Brenau_0_416_0_2_2_2_2

New Line.l(r:p1udm262-p1udm263) Units=km Length=0.00906709 bus1=p1udm262.1.2 bus2=p1udm263.1.2 switch=n enabled=y phases=2 Linecode=1P_UG_AL_1/0_Brenau_0_416_0_2_2_2_2

New Line.l(r:p1udm262-p1udt83lv) Units=km Length=0.00906228 bus1=p1udt83lv.1.2 bus2=p1udm262.1.2 switch=n enabled=y phases=2 Linecode=1P_UG_AL_4/0_Sweetbriar_0_416_0_2_2_2_2

New Line.l(r:p1udm264-p1ulv30442) Units=km Length=0.0155867 bus1=p1udm264.1.2 bus2=p1ulv30442.1.2 switch=n enabled=y phases=2 Linecode=1P_UG_AL_1/0_Brenau_0_416_0_2_2_2_2

New Line.l(r:p1udm264-p1udt83lv) Units=km Length=0.0189199 bus1=p1udt83lv.1.2 bus2=p1udm264.1.2 switch=n enabled=y phases=2 Linecode=1P_UG_AL_1/0_Brenau_0_416_0_2_2_2_2

New Line.l(r:p1udt84lv-p1ulv18364) Units=km Length=0.0134137 bus1=p1udt84lv.1.2 bus2=p1ulv18364.1.2 switch=n enabled=y phases=2 Linecode=1P_UG_AL_1/0_Brenau_0_416_0_2_2_2_2

New Line.l(r:p1udt84lv-p1ulv25404) Units=km Length=0.0167558 bus1=p1udt84lv.1.2 bus2=p1ulv25404.1.2 switch=n enabled=y phases=2 Linecode=1P_UG_AL_1/0_Brenau_0_416_0_2_2_2_2

New Line.l(r:p1udm266-p1ulv5152) Units=km Length=0.0171625 bus1=p1udm266.1.2 bus2=p1ulv5152.1.2 switch=n enabled=y phases=2 Linecode=1P_UG_AL_1/0_Brenau_0_416_0_2_2_2_2

New Line.l(r:p1udm265-p1ulv85) Units=km Length=0.0127848 bus1=p1udm265.1.2 bus2=p1ulv85.1.2 switch=n enabled=y phases=2 Linecode=1P_UG_AL_1/0_Brenau_0_416_0_2_2_2_2

New Line.l(r:p1udm265-p1udm266) Units=km Length=0.00971894 bus1=p1udm266.1.2 bus2=p1udm265.1.2 switch=n enabled=y phases=2 Linecode=1P_UG_AL_1/0_Brenau_0_416_0_2_2_2_2

New Line.l(r:p1udm266-p1udt84lv) Units=km Length=0.00972354 bus1=p1udt84lv.1.2 bus2=p1udm266.1.2 switch=n enabled=y phases=2 Linecode=1P_UG_AL_4/0_Sweetbriar_0_416_0_2_2_2_2

New Line.l(r:p1udm268-p1ulv24156) Units=km Length=0.0161731 bus1=p1udm268.1.2 bus2=p1ulv24156.1.2 switch=n enabled=y phases=2 Linecode=1P_UG_AL_1/0_Brenau_0_416_0_2_2_2_2

New Line.l(r:p1udm270-p1ulv41849) Units=km Length=0.012921900000000002 bus1=p1udm270.1.2 bus2=p1ulv41849.1.2 switch=n enabled=y phases=2 Linecode=1P_UG_AL_1/0_Brenau_0_416_0_2_2_2_2

New Line.l(r:p1udm268-p1udm270) Units=km Length=0.00972354 bus1=p1udm268.1.2 bus2=p1udm270.1.2 switch=n enabled=y phases=2 Linecode=1P_UG_AL_1/0_Brenau_0_416_0_2_2_2_2

New Line.l(r:p1udm268-p1udt84lv) Units=km Length=0.0194336 bus1=p1udt84lv.1.2 bus2=p1udm268.1.2 switch=n enabled=y phases=2 Linecode=1P_UG_AL_4/0_Sweetbriar_0_416_0_2_2_2_2

New Line.l(r:p1udt85lv-p1ulv86) Units=km Length=0.0147324 bus1=p1udt85lv.1.2 bus2=p1ulv86.1.2 switch=n enabled=y phases=2 Linecode=1P_UG_AL_4/0_Sweetbriar_0_416_0_2_2_2_2

New Line.l(r:p1udm321-p1ulv103) Units=km Length=0.0152197 bus1=p1udm321.1.2 bus2=p1ulv103.1.2 switch=n enabled=y phases=2 Linecode=1P_UG_AL_1/0_Brenau_0_416_0_2_2_2_2

New Line.l(r:p1udm323-p1ulv52538) Units=km Length=0.0155066 bus1=p1udm323.1.2 bus2=p1ulv52538.1.2 switch=n enabled=y phases=2 Linecode=1P_UG_AL_1/0_Brenau_0_416_0_2_2_2_2

New Line.l(r:p1udm323-p1ulv64299) Units=km Length=0.0113608 bus1=p1udm323.1.2 bus2=p1ulv64299.1.2 switch=n enabled=y phases=2 Linecode=1P_UG_AL_1/0_Brenau_0_416_0_2_2_2_2

New Line.l(r:p1udm321-p1udm323) Units=km Length=0.0092235 bus1=p1udm321.1.2 bus2=p1udm323.1.2 switch=n enabled=y phases=2 Linecode=1P_UG_AL_4/0_Sweetbriar_0_416_0_2_2_2_2

New Line.l(r:p1udm321-p1udt102lv) Units=km Length=0.0092334 bus1=p1udt102lv.1.2 bus2=p1udm321.1.2 switch=n enabled=y phases=2 Linecode=1P_UG_AL_4/0_Sweetbriar_0_416_0_2_2_2_2

New Line.l(r:p1udm322-p1ulv23507) Units=km Length=0.0139729 bus1=p1udm322.1.2 bus2=p1ulv23507.1.2 switch=n enabled=y phases=2 Linecode=1P_UG_AL_1/0_Brenau_0_416_0_2_2_2_2

New Line.l(r:p1udm324-p1ulv61743) Units=km Length=0.015618 bus1=p1udm324.1.2 bus2=p1ulv61743.1.2 switch=n enabled=y phases=2 Linecode=1P_UG_AL_1/0_Brenau_0_416_0_2_2_2_2

New Line.l(r:p1udm322-p1udm324) Units=km Length=0.0092235 bus1=p1udm322.1.2 bus2=p1udm324.1.2 switch=n enabled=y phases=2 Linecode=1P_UG_AL_1/0_Brenau_0_416_0_2_2_2_2

New Line.l(r:p1udm322-p1udt102lv) Units=km Length=0.009231990000000002 bus1=p1udt102lv.1.2 bus2=p1udm322.1.2 switch=n enabled=y phases=2 Linecode=1P_UG_AL_4/0_Sweetbriar_0_416_0_2_2_2_2

New Line.l(r:p1udt103lv-p1ulv32362) Units=km Length=0.0200304 bus1=p1udt103lv.1.2 bus2=p1ulv32362.1.2 switch=n enabled=y phases=2 Linecode=1P_UG_AL_1/0_Brenau_0_416_0_2_2_2_2

New Line.l(r:p1udt103lv-p1ulv41241) Units=km Length=0.0150283 bus1=p1udt103lv.1.2 bus2=p1ulv41241.1.2 switch=n enabled=y phases=2 Linecode=1P_UG_AL_1/0_Brenau_0_416_0_2_2_2_2

New Line.l(r:p1udm326-p1ulv104) Units=km Length=0.016902200000000003 bus1=p1udm326.1.2 bus2=p1ulv104.1.2 switch=n enabled=y phases=2 Linecode=1P_UG_AL_1/0_Brenau_0_416_0_2_2_2_2

New Line.l(r:p1udm326-p1udt103lv) Units=km Length=0.0686786 bus1=p1udt103lv.1.2 bus2=p1udm326.1.2 switch=n enabled=y phases=2 Linecode=1P_UG_AL_1/0_Brenau_0_416_0_2_2_2_2

New Line.l(r:p1udt104lv-p1ulv16448) Units=km Length=0.0170511 bus1=p1udt104lv.1.2 bus2=p1ulv16448.1.2 switch=n enabled=y phases=2 Linecode=1P_OH_AL_2/0_Rucina_0_416_0_2_2_2_2

New Line.l(r:p1udt104lv-p1ulv35604) Units=km Length=0.0222114 bus1=p1udt104lv.1.2 bus2=p1ulv35604.1.2 switch=n enabled=y phases=2 Linecode=1P_OH_AL_2/0_Rucina_0_416_0_2_2_2_2

New Line.l(r:p1udm329-p1ulv105) Units=km Length=0.0126025 bus1=p1udm329.1.2 bus2=p1ulv105.1.2 switch=n enabled=y phases=2 Linecode=1P_OH_AL_2/0_Rucina_0_416_0_2_2_2_2

New Line.l(r:p1udm329-p1udt104lv) Units=km Length=0.0167215 bus1=p1udt104lv.1.2 bus2=p1udm329.1.2 switch=n enabled=y phases=2 Linecode=1P_OH_AL_2/0_Rucina_0_416_0_2_2_2_2

New Line.l(r:p1udt105lv-p1ulv106) Units=km Length=0.0146241 bus1=p1udt105lv.1.2 bus2=p1ulv106.1.2 switch=n enabled=y phases=2 Linecode=1P_OH_AL_2/0_Rucina_0_416_0_2_2_2_2

New Line.l(r:p1udt105lv-p1ulv27358) Units=km Length=0.00729902 bus1=p1udt105lv.1.2 bus2=p1ulv27358.1.2 switch=n enabled=y phases=2 Linecode=1P_OH_AL_2/0_Rucina_0_416_0_2_2_2_2

New Line.l(r:p1udm334-p1ulv56863) Units=km Length=0.0175718 bus1=p1udm334.1.2 bus2=p1ulv56863.1.2 switch=n enabled=y phases=2 Linecode=1P_OH_AL_2/0_Rucina_0_416_0_2_2_2_2

New Line.l(r:p1udm334-p1udt105lv) Units=km Length=0.0176855 bus1=p1udt105lv.1.2 bus2=p1udm334.1.2 switch=n enabled=y phases=2 Linecode=1P_OH_AL_2/0_Rucina_0_416_0_2_2_2_2

New Line.l(r:p1udt106lv-p1ulv107) Units=km Length=0.0194906 bus1=p1udt106lv.1.2 bus2=p1ulv107.1.2 switch=n enabled=y phases=2 Linecode=1P_OH_AL_2/0_Rucina_0_416_0_2_2_2_2

New Line.l(r:p1udm1434-p1ulv400) Units=km Length=0.0197516 bus1=p1udm1434.1.2 bus2=p1ulv400.1.2 switch=n enabled=y phases=2 Linecode=1P_UG_AL_1/0_Brenau_0_416_0_2_2_2_2

New Line.l(r:p1udm1434-p1ulv50932) Units=km Length=0.019671 bus1=p1udm1434.1.2 bus2=p1ulv50932.1.2 switch=n enabled=y phases=2 Linecode=1P_UG_AL_1/0_Brenau_0_416_0_2_2_2_2

New Line.l(r:p1udm1434-p1udt396lv) Units=km Length=0.00927164 bus1=p1udt396lv.1.2 bus2=p1udm1434.1.2 switch=n enabled=y phases=2 Linecode=1P_UG_AL_4/0_Sweetbriar_0_416_0_2_2_2_2

New Line.l(r:p1udm1435-p1ulv1712) Units=km Length=0.00957019 bus1=p1udm1435.1.2 bus2=p1ulv1712.1.2 switch=n enabled=y phases=2 Linecode=1P_UG_AL_1/0_Brenau_0_416_0_2_2_2_2

New Line.l(r:p1udm1435-p1udt396lv) Units=km Length=0.0185415 bus1=p1udt396lv.1.2 bus2=p1udm1435.1.2 switch=n enabled=y phases=2 Linecode=1P_UG_AL_1/0_Brenau_0_416_0_2_2_2_2

New Line.l(r:p1udm1437-p1ulv401) Units=km Length=0.0110622 bus1=p1udm1437.1.2 bus2=p1ulv401.1.2 switch=n enabled=y phases=2 Linecode=1P_UG_AL_1/0_Brenau_0_416_0_2_2_2_2

New Line.l(r:p1udm1437-p1ulv5449) Units=km Length=0.021174100000000005 bus1=p1udm1437.1.2 bus2=p1ulv5449.1.2 switch=n enabled=y phases=2 Linecode=1P_UG_AL_1/0_Brenau_0_416_0_2_2_2_2

New Line.l(r:p1udm1437-p1udt397lv) Units=km Length=0.0169552 bus1=p1udt397lv.1.2 bus2=p1udm1437.1.2 switch=n enabled=y phases=2 Linecode=1P_UG_AL_4/0_Sweetbriar_0_416_0_2_2_2_2

New Line.l(r:p1udm1439-p1ulv5450) Units=km Length=0.0143663 bus1=p1udm1439.1.2 bus2=p1ulv5450.1.2 switch=n enabled=y phases=2 Linecode=1P_UG_AL_1/0_Brenau_0_416_0_2_2_2_2

New Line.l(r:p1udm1439-p1udt397lv) Units=km Length=0.0269475 bus1=p1udt397lv.1.2 bus2=p1udm1439.1.2 switch=n enabled=y phases=2 Linecode=1P_UG_AL_1/0_Brenau_0_416_0_2_2_2_2

New Line.l(r:p1udm2634-p1ulv732) Units=km Length=0.0246563 bus1=p1udm2634.1.2 bus2=p1ulv732.1.2 switch=n enabled=y phases=2 Linecode=1P_UG_AL_1/0_Brenau_0_416_0_2_2_2_2

New Line.l(r:p1udm2634-p1udt722lv) Units=km Length=0.00995454 bus1=p1udt722lv.1.2 bus2=p1udm2634.1.2 switch=n enabled=y phases=2 Linecode=1P_UG_AL_1/0_Brenau_0_416_0_2_2_2_2

New Line.l(r:p1udm2635-p1ulv29812) Units=km Length=0.0496958 bus1=p1udm2635.1.2 bus2=p1ulv29812.1.2 switch=n enabled=y phases=2 Linecode=1P_UG_AL_1/0_Brenau_0_416_0_2_2_2_2

New Line.l(r:p1udm2635-p1udt722lv) Units=km Length=0.0199155 bus1=p1udt722lv.1.2 bus2=p1udm2635.1.2 switch=n enabled=y phases=2 Linecode=1P_UG_AL_1/0_Brenau_0_416_0_2_2_2_2

New Line.l(r:p1udm2636-p1ulv733) Units=km Length=0.017221 bus1=p1udm2636.1.2 bus2=p1ulv733.1.2 switch=n enabled=y phases=2 Linecode=1P_UG_AL_1/0_Brenau_0_416_0_2_2_2_2

New Line.l(r:p1udm2637-p1ulv3933) Units=km Length=0.0121246 bus1=p1udm2637.1.2 bus2=p1ulv3933.1.2 switch=n enabled=y phases=2 Linecode=1P_UG_AL_1/0_Brenau_0_416_0_2_2_2_2

New Line.l(r:p1udm2636-p1udm2637) Units=km Length=0.00911707 bus1=p1udm2636.1.2 bus2=p1udm2637.1.2 switch=n enabled=y phases=2 Linecode=1P_UG_AL_1/0_Brenau_0_416_0_2_2_2_2

New Line.l(r:p1udm2636-p1udt723lv) Units=km Length=0.0182341 bus1=p1udt723lv.1.2 bus2=p1udm2636.1.2 switch=n enabled=y phases=2 Linecode=1P_UG_AL_4/0_Sweetbriar_0_416_0_2_2_2_2

New Line.l(r:p1udm2638-p1ulv13318) Units=km Length=0.0158221 bus1=p1udm2638.1.2 bus2=p1ulv13318.1.2 switch=n enabled=y phases=2 Linecode=1P_UG_AL_1/0_Brenau_0_416_0_2_2_2_2

New Line.l(r:p1udm2638-p1udt723lv) Units=km Length=0.00911707 bus1=p1udt723lv.1.2 bus2=p1udm2638.1.2 switch=n enabled=y phases=2 Linecode=1P_UG_AL_1/0_Brenau_0_416_0_2_2_2_2

New Line.l(r:p1udt724lv-p1ulv734) Units=km Length=0.0164865 bus1=p1udt724lv.1.2 bus2=p1ulv734.1.2 switch=n enabled=y phases=2 Linecode=1P_UG_AL_1/0_Brenau_0_416_0_2_2_2_2

New Line.l(r:p1udm2642-p1ulv30443) Units=km Length=0.0165794 bus1=p1udm2642.1.2 bus2=p1ulv30443.1.2 switch=n enabled=y phases=2 Linecode=1P_UG_AL_1/0_Brenau_0_416_0_2_2_2_2

New Line.l(r:p1udm2641-p1ulv27340) Units=km Length=0.0178521 bus1=p1udm2641.1.2 bus2=p1ulv27340.1.2 switch=n enabled=y phases=2 Linecode=1P_UG_AL_1/0_Brenau_0_416_0_2_2_2_2

New Line.l(r:p1udm2641-p1udm2642) Units=km Length=0.027808200000000005 bus1=p1udm2642.1.2 bus2=p1udm2641.1.2 switch=n enabled=y phases=2 Linecode=1P_UG_AL_1/0_Brenau_0_416_0_2_2_2_2

New Line.l(r:p1udm2642-p1udt724lv) Units=km Length=0.0185388 bus1=p1udt724lv.1.2 bus2=p1udm2642.1.2 switch=n enabled=y phases=2 Linecode=1P_UG_AL_4/0_Sweetbriar_0_416_0_2_2_2_2

New Line.l(r:p1udm2643-p1ulv31724) Units=km Length=0.0166685 bus1=p1udm2643.1.2 bus2=p1ulv31724.1.2 switch=n enabled=y phases=2 Linecode=1P_UG_AL_1/0_Brenau_0_416_0_2_2_2_2

New Line.l(r:p1udm2640-p1ulv5151) Units=km Length=0.0159326 bus1=p1udm2640.1.2 bus2=p1ulv5151.1.2 switch=n enabled=y phases=2 Linecode=1P_UG_AL_1/0_Brenau_0_416_0_2_2_2_2

New Line.l(r:p1udm2640-p1udm2643) Units=km Length=0.00926941 bus1=p1udm2643.1.2 bus2=p1udm2640.1.2 switch=n enabled=y phases=2 Linecode=1P_UG_AL_1/0_Brenau_0_416_0_2_2_2_2

New Line.l(r:p1udm2643-p1udt724lv) Units=km Length=0.01853 bus1=p1udt724lv.1.2 bus2=p1udm2643.1.2 switch=n enabled=y phases=2 Linecode=1P_UG_AL_4/0_Sweetbriar_0_416_0_2_2_2_2

New Line.l(r:p1udt725lv-p1ulv735) Units=km Length=0.0152703 bus1=p1udt725lv.1.2 bus2=p1ulv735.1.2 switch=n enabled=y phases=2 Linecode=1P_UG_AL_1/0_Brenau_0_416_0_2_2_2_2

New Line.l(r:p1udt725lv-p1ulv6448) Units=km Length=0.0129684 bus1=p1udt725lv.1.2 bus2=p1ulv6448.1.2 switch=n enabled=y phases=2 Linecode=1P_UG_AL_1/0_Brenau_0_416_0_2_2_2_2

New Line.l(r:p1udm2646-p1ulv17087) Units=km Length=0.0161569 bus1=p1udm2646.1.2 bus2=p1ulv17087.1.2 switch=n enabled=y phases=2 Linecode=1P_UG_AL_1/0_Brenau_0_416_0_2_2_2_2

New Line.l(r:p1udm2646-p1udt725lv) Units=km Length=0.0762659 bus1=p1udt725lv.1.2 bus2=p1udm2646.1.2 switch=n enabled=y phases=2 Linecode=1P_UG_AL_1/0_Brenau_0_416_0_2_2_2_2

New Line.l(r:p1udm2647-p1ulv42475) Units=km Length=0.0180182 bus1=p1udm2647.1.2 bus2=p1ulv42475.1.2 switch=n enabled=y phases=2 Linecode=1P_UG_AL_1/0_Brenau_0_416_0_2_2_2_2

New Line.l(r:p1udm2647-p1ulv55044) Units=km Length=0.0103555 bus1=p1udm2647.1.2 bus2=p1ulv55044.1.2 switch=n enabled=y phases=2 Linecode=1P_UG_AL_1/0_Brenau_0_416_0_2_2_2_2

New Line.l(r:p1udm2647-p1udt725lv) Units=km Length=0.0186182 bus1=p1udt725lv.1.2 bus2=p1udm2647.1.2 switch=n enabled=y phases=2 Linecode=1P_UG_AL_4/0_Sweetbriar_0_416_0_2_2_2_2

New Line.l(r:p1udt726lv-p1ulv41852) Units=km Length=0.0162669 bus1=p1udt726lv.1.2 bus2=p1ulv41852.1.2 switch=n enabled=y phases=2 Linecode=1P_UG_AL_1/0_Brenau_0_416_0_2_2_2_2

New Line.l(r:p1udm2649-p1ulv736) Units=km Length=0.0159361 bus1=p1udm2649.1.2 bus2=p1ulv736.1.2 switch=n enabled=y phases=2 Linecode=1P_UG_AL_1/0_Brenau_0_416_0_2_2_2_2

New Line.l(r:p1udm2649-p1udt726lv) Units=km Length=0.00967542 bus1=p1udt726lv.1.2 bus2=p1udm2649.1.2 switch=n enabled=y phases=2 Linecode=1P_UG_AL_1/0_Brenau_0_416_0_2_2_2_2

New Line.l(r:p1udm2652-p1ulv64895) Units=km Length=0.014336 bus1=p1udm2652.1.2 bus2=p1ulv64895.1.2 switch=n enabled=y phases=2 Linecode=1P_UG_AL_1/0_Brenau_0_416_0_2_2_2_2

New Line.l(r:p1udm2650-p1ulv22186) Units=km Length=0.0164784 bus1=p1udm2650.1.2 bus2=p1ulv22186.1.2 switch=n enabled=y phases=2 Linecode=1P_UG_AL_1/0_Brenau_0_416_0_2_2_2_2

New Line.l(r:p1udm2650-p1udm2652) Units=km Length=0.00968008 bus1=p1udm2652.1.2 bus2=p1udm2650.1.2 switch=n enabled=y phases=2 Linecode=1P_UG_AL_1/0_Brenau_0_416_0_2_2_2_2

New Line.l(r:p1udm2652-p1udt726lv) Units=km Length=0.00967542 bus1=p1udt726lv.1.2 bus2=p1udm2652.1.2 switch=n enabled=y phases=2 Linecode=1P_UG_AL_4/0_Sweetbriar_0_416_0_2_2_2_2

New Line.l(r:p1udm2653-p1ulv737) Units=km Length=0.0141809 bus1=p1udm2653.1.2 bus2=p1ulv737.1.2 switch=n enabled=y phases=2 Linecode=1P_UG_AL_4/0_Sweetbriar_0_416_0_2_2_2_2

New Line.l(r:p1udm2653-p1ulv46342) Units=km Length=0.0176995 bus1=p1udm2653.1.2 bus2=p1ulv46342.1.2 switch=n enabled=y phases=2 Linecode=1P_UG_AL_1/0_Brenau_0_416_0_2_2_2_2

New Line.l(r:p1udm2653-p1udt727lv) Units=km Length=0.00890282 bus1=p1udt727lv.1.2 bus2=p1udm2653.1.2 switch=n enabled=y phases=2 Linecode=1P_UG_AL_4/0_Sweetbriar_0_416_0_2_2_2_2

New Line.l(r:p1udm2654-p1ulv12067) Units=km Length=0.0138495 bus1=p1udm2654.1.2 bus2=p1ulv12067.1.2 switch=n enabled=y phases=2 Linecode=1P_UG_AL_1/0_Brenau_0_416_0_2_2_2_2

New Line.l(r:p1udm2654-p1ulv32346) Units=km Length=0.0162275 bus1=p1udm2654.1.2 bus2=p1ulv32346.1.2 switch=n enabled=y phases=2 Linecode=1P_UG_AL_1/0_Brenau_0_416_0_2_2_2_2

New Line.l(r:p1udm2654-p1ulv38081) Units=km Length=0.0145915 bus1=p1udm2654.1.2 bus2=p1ulv38081.1.2 switch=n enabled=y phases=2 Linecode=1P_UG_AL_1/0_Brenau_0_416_0_2_2_2_2

New Line.l(r:p1udm2654-p1udt727lv) Units=km Length=0.00889798 bus1=p1udt727lv.1.2 bus2=p1udm2654.1.2 switch=n enabled=y phases=2 Linecode=1P_UG_AL_4/0_Sweetbriar_0_416_0_2_2_2_2

New Line.l(r:p1udt743lv-p1ulv20324) Units=km Length=0.0243825 bus1=p1udt743lv.1.2 bus2=p1ulv20324.1.2 switch=n enabled=y phases=2 Linecode=1P_UG_AL_1/0_Brenau_0_416_0_2_2_2_2

New Line.l(r:p1udt743lv-p1ulv57494) Units=km Length=0.0210125 bus1=p1udt743lv.1.2 bus2=p1ulv57494.1.2 switch=n enabled=y phases=2 Linecode=1P_UG_AL_1/0_Brenau_0_416_0_2_2_2_2

New Line.l(r:p1udm2701-p1ulv753) Units=km Length=0.0213183 bus1=p1udm2701.1.2 bus2=p1ulv753.1.2 switch=n enabled=y phases=2 Linecode=1P_UG_AL_1/0_Brenau_0_416_0_2_2_2_2

New Line.l(r:p1udm2701-p1udt743lv) Units=km Length=0.0097279 bus1=p1udt743lv.1.2 bus2=p1udm2701.1.2 switch=n enabled=y phases=2 Linecode=1P_UG_AL_1/0_Brenau_0_416_0_2_2_2_2

New Line.l(r:p1udm2704-p1ulv48185) Units=km Length=0.0129123 bus1=p1udm2704.1.2 bus2=p1ulv48185.1.2 switch=n enabled=y phases=2 Linecode=1P_UG_AL_1/0_Brenau_0_416_0_2_2_2_2

New Line.l(r:p1udm2703-p1ulv36260) Units=km Length=0.0179062 bus1=p1udm2703.1.2 bus2=p1ulv36260.1.2 switch=n enabled=y phases=2 Linecode=1P_UG_AL_1/0_Brenau_0_416_0_2_2_2_2

New Line.l(r:p1udm2703-p1udm2704) Units=km Length=0.00899703 bus1=p1udm2704.1.2 bus2=p1udm2703.1.2 switch=n enabled=y phases=2 Linecode=1P_UG_AL_1/0_Brenau_0_416_0_2_2_2_2

New Line.l(r:p1udm2704-p1udt743lv) Units=km Length=0.0180028 bus1=p1udt743lv.1.2 bus2=p1udm2704.1.2 switch=n enabled=y phases=2 Linecode=1P_UG_AL_4/0_Sweetbriar_0_416_0_2_2_2_2

New Line.l(r:p1udt744lv-p1ulv754) Units=km Length=0.0165813 bus1=p1udt744lv.1.2 bus2=p1ulv754.1.2 switch=n enabled=y phases=2 Linecode=1P_OH_AL_2/0_Rucina_0_416_0_2_2_2_2

New Line.l(r:p1udt744lv-p1ulv40637) Units=km Length=0.0209899 bus1=p1udt744lv.1.2 bus2=p1ulv40637.1.2 switch=n enabled=y phases=2 Linecode=1P_OH_AL_2/0_Rucina_0_416_0_2_2_2_2

New Line.l(r:p1udm2707-p1ulv25434) Units=km Length=0.014990600000000001 bus1=p1udm2707.1.2 bus2=p1ulv25434.1.2 switch=n enabled=y phases=2 Linecode=1P_OH_AL_2/0_Rucina_0_416_0_2_2_2_2

New Line.l(r:p1udm2707-p1udt744lv) Units=km Length=0.0180185 bus1=p1udt744lv.1.2 bus2=p1udm2707.1.2 switch=n enabled=y phases=2 Linecode=1P_OH_AL_2/0_Rucina_0_416_0_2_2_2_2

New Line.l(r:p1udt745lv-p1ulv755) Units=km Length=0.0314779 bus1=p1udt745lv.1.2 bus2=p1ulv755.1.2 switch=n enabled=y phases=2 Linecode=1P_UG_AL_1/0_Brenau_0_416_0_2_2_2_2

New Line.l(r:p1udt745lv-p1ulv5176) Units=km Length=0.0229732 bus1=p1udt745lv.1.2 bus2=p1ulv5176.1.2 switch=n enabled=y phases=2 Linecode=1P_UG_AL_1/0_Brenau_0_416_0_2_2_2_2

New Line.l(r:p1udt745lv-p1ulv32361) Units=km Length=0.0316393 bus1=p1udt745lv.1.2 bus2=p1ulv32361.1.2 switch=n enabled=y phases=2 Linecode=1P_UG_AL_1/0_Brenau_0_416_0_2_2_2_2

New Line.l(r:p1udm2712-p1ulv38095) Units=km Length=0.0163464 bus1=p1udm2712.1.2 bus2=p1ulv38095.1.2 switch=n enabled=y phases=2 Linecode=1P_UG_AL_1/0_Brenau_0_416_0_2_2_2_2

New Line.l(r:p1udm2712-p1udt745lv) Units=km Length=0.0863453 bus1=p1udt745lv.1.2 bus2=p1udm2712.1.2 switch=n enabled=y phases=2 Linecode=1P_UG_AL_1/0_Brenau_0_416_0_2_2_2_2

New Line.l(r:p1udt746lv-p1ulv27979) Units=km Length=0.00759373 bus1=p1udt746lv.1.2 bus2=p1ulv27979.1.2 switch=n enabled=y phases=2 Linecode=1P_UG_AL_1/0_Brenau_0_416_0_2_2_2_2

New Line.l(r:p1udm2713-p1ulv756) Units=km Length=0.0198665 bus1=p1udm2713.1.2 bus2=p1ulv756.1.2 switch=n enabled=y phases=2 Linecode=1P_UG_AL_1/0_Brenau_0_416_0_2_2_2_2

New Line.l(r:p1udm2713-p1udt746lv) Units=km Length=0.00973088 bus1=p1udt746lv.1.2 bus2=p1udm2713.1.2 switch=n enabled=y phases=2 Linecode=1P_UG_AL_1/0_Brenau_0_416_0_2_2_2_2

New Line.l(r:p1udm2714-p1ulv7728) Units=km Length=0.0203542 bus1=p1udm2714.1.2 bus2=p1ulv7728.1.2 switch=n enabled=y phases=2 Linecode=1P_UG_AL_1/0_Brenau_0_416_0_2_2_2_2

New Line.l(r:p1udm2714-p1udt746lv) Units=km Length=0.00974393 bus1=p1udt746lv.1.2 bus2=p1udm2714.1.2 switch=n enabled=y phases=2 Linecode=1P_UG_AL_1/0_Brenau_0_416_0_2_2_2_2

New Line.l(r:p1udm2716-p1ulv757) Units=km Length=0.0151455 bus1=p1udm2716.1.2 bus2=p1ulv757.1.2 switch=n enabled=y phases=2 Linecode=1P_UG_AL_1/0_Brenau_0_416_0_2_2_2_2

New Line.l(r:p1udm2718-p1ulv26686) Units=km Length=0.0110641 bus1=p1udm2718.1.2 bus2=p1ulv26686.1.2 switch=n enabled=y phases=2 Linecode=1P_UG_AL_1/0_Brenau_0_416_0_2_2_2_2

New Line.l(r:p1udm2716-p1udm2718) Units=km Length=0.0165087 bus1=p1udm2716.1.2 bus2=p1udm2718.1.2 switch=n enabled=y phases=2 Linecode=1P_UG_AL_1/0_Brenau_0_416_0_2_2_2_2

New Line.l(r:p1udm2716-p1udt747lv) Units=km Length=0.00724133 bus1=p1udt747lv.1.2 bus2=p1udm2716.1.2 switch=n enabled=y phases=2 Linecode=1P_UG_AL_4/0_Sweetbriar_0_416_0_2_2_2_2

New Line.l(r:p1udm2719-p1ulv36261) Units=km Length=0.0172681 bus1=p1udm2719.1.2 bus2=p1ulv36261.1.2 switch=n enabled=y phases=2 Linecode=1P_UG_AL_1/0_Brenau_0_416_0_2_2_2_2

New Line.l(r:p1udm2717-p1ulv4550) Units=km Length=0.0152708 bus1=p1udm2717.1.2 bus2=p1ulv4550.1.2 switch=n enabled=y phases=2 Linecode=1P_UG_AL_1/0_Brenau_0_416_0_2_2_2_2

New Line.l(r:p1udm2717-p1udm2719) Units=km Length=0.00724133 bus1=p1udm2719.1.2 bus2=p1udm2717.1.2 switch=n enabled=y phases=2 Linecode=1P_UG_AL_1/0_Brenau_0_416_0_2_2_2_2

New Line.l(r:p1udm2719-p1udt747lv) Units=km Length=0.00724133 bus1=p1udt747lv.1.2 bus2=p1udm2719.1.2 switch=n enabled=y phases=2 Linecode=1P_UG_AL_2/0_Converse_0_416_0_2_2_2_2

New Line.l(r:p1udt748lv-p1ulv758) Units=km Length=0.0189047 bus1=p1udt748lv.1.2 bus2=p1ulv758.1.2 switch=n enabled=y phases=2 Linecode=1P_UG_AL_1/0_Brenau_0_416_0_2_2_2_2

New Line.l(r:p1udm2721-p1ulv26062) Units=km Length=0.0134061 bus1=p1udm2721.1.2 bus2=p1ulv26062.1.2 switch=n enabled=y phases=2 Linecode=1P_UG_AL_1/0_Brenau_0_416_0_2_2_2_2

New Line.l(r:p1udm2721-p1udt748lv) Units=km Length=0.013115600000000002 bus1=p1udt748lv.1.2 bus2=p1udm2721.1.2 switch=n enabled=y phases=2 Linecode=1P_UG_AL_1/0_Brenau_0_416_0_2_2_2_2

New Line.l(r:p1udm2722-p1ulv36857) Units=km Length=0.0156473 bus1=p1udm2722.1.2 bus2=p1ulv36857.1.2 switch=n enabled=y phases=2 Linecode=1P_UG_AL_1/0_Brenau_0_416_0_2_2_2_2

New Line.l(r:p1udm2722-p1ulv55063) Units=km Length=0.0157546 bus1=p1udm2722.1.2 bus2=p1ulv55063.1.2 switch=n enabled=y phases=2 Linecode=1P_UG_AL_1/0_Brenau_0_416_0_2_2_2_2

New Line.l(r:p1udm2722-p1udt748lv) Units=km Length=0.00982257 bus1=p1udt748lv.1.2 bus2=p1udm2722.1.2 switch=n enabled=y phases=2 Linecode=1P_UG_AL_4/0_Sweetbriar_0_416_0_2_2_2_2

New Line.l(r:p1udm2725-p1ulv59875) Units=km Length=0.0117572 bus1=p1udm2725.1.2 bus2=p1ulv59875.1.2 switch=n enabled=y phases=2 Linecode=1P_UG_AL_1/0_Brenau_0_416_0_2_2_2_2

New Line.l(r:p1udm2724-p1ulv759) Units=km Length=0.016024200000000002 bus1=p1udm2724.1.2 bus2=p1ulv759.1.2 switch=n enabled=y phases=2 Linecode=1P_UG_AL_1/0_Brenau_0_416_0_2_2_2_2

New Line.l(r:p1udm2724-p1udm2725) Units=km Length=0.015002 bus1=p1udm2725.1.2 bus2=p1udm2724.1.2 switch=n enabled=y phases=2 Linecode=1P_UG_AL_1/0_Brenau_0_416_0_2_2_2_2

New Line.l(r:p1udm2725-p1udt749lv) Units=km Length=0.0079962 bus1=p1udt749lv.1.2 bus2=p1udm2725.1.2 switch=n enabled=y phases=2 Linecode=1P_UG_AL_4/0_Sweetbriar_0_416_0_2_2_2_2

New Line.l(r:p1udm2726-p1ulv64303) Units=km Length=0.016737400000000003 bus1=p1udm2726.1.2 bus2=p1ulv64303.1.2 switch=n enabled=y phases=2 Linecode=1P_UG_AL_1/0_Brenau_0_416_0_2_2_2_2

New Line.l(r:p1udm2726-p1udt749lv) Units=km Length=0.014530200000000002 bus1=p1udt749lv.1.2 bus2=p1udm2726.1.2 switch=n enabled=y phases=2 Linecode=1P_UG_AL_1/0_Brenau_0_416_0_2_2_2_2

New Line.l(r:p1udt750lv-p1ulv760) Units=km Length=0.0153546 bus1=p1udt750lv.1.2 bus2=p1ulv760.1.2 switch=n enabled=y phases=2 Linecode=1P_UG_AL_1/0_Brenau_0_416_0_2_2_2_2

New Line.l(r:p1udt751lv-p1ulv64304) Units=km Length=0.011285600000000002 bus1=p1udt751lv.1.2 bus2=p1ulv64304.1.2 switch=n enabled=y phases=2 Linecode=1P_UG_AL_1/0_Brenau_0_416_0_2_2_2_2

New Line.l(r:p1udm2728-p1ulv761) Units=km Length=0.0136796 bus1=p1udm2728.1.2 bus2=p1ulv761.1.2 switch=n enabled=y phases=2 Linecode=1P_UG_AL_1/0_Brenau_0_416_0_2_2_2_2

New Line.l(r:p1udm2728-p1udt751lv) Units=km Length=0.00985481 bus1=p1udt751lv.1.2 bus2=p1udm2728.1.2 switch=n enabled=y phases=2 Linecode=1P_UG_AL_1/0_Brenau_0_416_0_2_2_2_2

New Line.l(r:p1udm2729-p1ulv31092) Units=km Length=0.0257981 bus1=p1udm2729.1.2 bus2=p1ulv31092.1.2 switch=n enabled=y phases=2 Linecode=1P_OH_AL_2/0_Rucina_0_416_0_2_2_2_2

New Line.l(r:p1udm2729-p1udt751lv) Units=km Length=0.057261000000000006 bus1=p1udt751lv.1.2 bus2=p1udm2729.1.2 switch=n enabled=y phases=2 Linecode=1P_OH_AL_4/0_Zuzara_0_416_0_2_2_2_2

New Line.l(r:p1udm2730-p1ulv40642) Units=km Length=0.0214978 bus1=p1udm2730.1.2 bus2=p1ulv40642.1.2 switch=n enabled=y phases=2 Linecode=1P_OH_AL_2/0_Rucina_0_416_0_2_2_2_2

New Line.l(r:p1udm2730-p1udt751lv) Units=km Length=0.06731350000000001 bus1=p1udt751lv.1.2 bus2=p1udm2730.1.2 switch=n enabled=y phases=2 Linecode=1P_OH_AL_4/0_Zuzara_0_416_0_2_2_2_2

New Line.l(r:p1udt752lv-p1ulv762) Units=km Length=0.0154704 bus1=p1udt752lv.1.2 bus2=p1ulv762.1.2 switch=n enabled=y phases=2 Linecode=1P_UG_AL_1/0_Brenau_0_416_0_2_2_2_2

New Line.l(r:p1udt752lv-p1ulv60515) Units=km Length=0.014620700000000002 bus1=p1udt752lv.1.2 bus2=p1ulv60515.1.2 switch=n enabled=y phases=2 Linecode=1P_UG_AL_1/0_Brenau_0_416_0_2_2_2_2

New Line.l(r:p1udm2734-p1ulv57500) Units=km Length=0.0145819 bus1=p1udm2734.1.2 bus2=p1ulv57500.1.2 switch=n enabled=y phases=2 Linecode=1P_UG_AL_1/0_Brenau_0_416_0_2_2_2_2

New Line.l(r:p1udm2733-p1ulv5178) Units=km Length=0.0151662 bus1=p1udm2733.1.2 bus2=p1ulv5178.1.2 switch=n enabled=y phases=2 Linecode=1P_UG_AL_1/0_Brenau_0_416_0_2_2_2_2

New Line.l(r:p1udm2733-p1udm2734) Units=km Length=0.0155549 bus1=p1udm2734.1.2 bus2=p1udm2733.1.2 switch=n enabled=y phases=2 Linecode=1P_UG_AL_1/0_Brenau_0_416_0_2_2_2_2

New Line.l(r:p1udm2734-p1udt752lv) Units=km Length=0.00733614 bus1=p1udt752lv.1.2 bus2=p1udm2734.1.2 switch=n enabled=y phases=2 Linecode=1P_UG_AL_4/0_Sweetbriar_0_416_0_2_2_2_2

New Line.l(r:p1udm2736-p1ulv61127) Units=km Length=0.0155846 bus1=p1udm2736.1.2 bus2=p1ulv61127.1.2 switch=n enabled=y phases=2 Linecode=1P_UG_AL_1/0_Brenau_0_416_0_2_2_2_2

New Line.l(r:p1udm2736-p1udt752lv) Units=km Length=0.0155459 bus1=p1udt752lv.1.2 bus2=p1udm2736.1.2 switch=n enabled=y phases=2 Linecode=1P_UG_AL_1/0_Brenau_0_416_0_2_2_2_2

New Line.l(r:p1udm3669-p1ulv8631) Units=km Length=0.013564 bus1=p1udm3669.1.2 bus2=p1ulv8631.1.2 switch=n enabled=y phases=2 Linecode=1P_UG_AL_1/0_Brenau_0_416_0_2_2_2_2

New Line.l(r:p1udm3668-p1ulv1017) Units=km Length=0.0138628 bus1=p1udm3668.1.2 bus2=p1ulv1017.1.2 switch=n enabled=y phases=2 Linecode=1P_UG_AL_1/0_Brenau_0_416_0_2_2_2_2

New Line.l(r:p1udm3668-p1udm3669) Units=km Length=0.0327604 bus1=p1udm3669.1.2 bus2=p1udm3668.1.2 switch=n enabled=y phases=2 Linecode=1P_UG_AL_1/0_Brenau_0_416_0_2_2_2_2

New Line.l(r:p1udm3669-p1udt997lv) Units=km Length=0.019028700000000003 bus1=p1udt997lv.1.2 bus2=p1udm3669.1.2 switch=n enabled=y phases=2 Linecode=1P_UG_AL_2/0_Converse_0_416_0_2_2_2_2

New Line.l(r:p1udm3670-p1ulv27640) Units=km Length=0.0157332 bus1=p1udm3670.1.2 bus2=p1ulv27640.1.2 switch=n enabled=y phases=2 Linecode=1P_UG_AL_1/0_Brenau_0_416_0_2_2_2_2

New Line.l(r:p1udm3670-p1ulv45991) Units=km Length=0.017823 bus1=p1udm3670.1.2 bus2=p1ulv45991.1.2 switch=n enabled=y phases=2 Linecode=1P_UG_AL_1/0_Brenau_0_416_0_2_2_2_2

New Line.l(r:p1udm3670-p1udt997lv) Units=km Length=0.019028700000000003 bus1=p1udt997lv.1.2 bus2=p1udm3670.1.2 switch=n enabled=y phases=2 Linecode=1P_UG_AL_4/0_Sweetbriar_0_416_0_2_2_2_2

New Line.l(r:p1udm3672-p1ulv1018) Units=km Length=0.0251502 bus1=p1udm3672.1.2 bus2=p1ulv1018.1.2 switch=n enabled=y phases=2 Linecode=1P_UG_AL_1/0_Brenau_0_416_0_2_2_2_2

New Line.l(r:p1udm3672-p1ulv21894) Units=km Length=0.0173526 bus1=p1udm3672.1.2 bus2=p1ulv21894.1.2 switch=n enabled=y phases=2 Linecode=1P_UG_AL_1/0_Brenau_0_416_0_2_2_2_2

New Line.l(r:p1udm3672-p1udt998lv) Units=km Length=0.009639290000000002 bus1=p1udt998lv.1.2 bus2=p1udm3672.1.2 switch=n enabled=y phases=2 Linecode=1P_UG_AL_4/0_Sweetbriar_0_416_0_2_2_2_2

New Line.l(r:p1udm3674-p1ulv52184) Units=km Length=0.018199000000000003 bus1=p1udm3674.1.2 bus2=p1ulv52184.1.2 switch=n enabled=y phases=2 Linecode=1P_UG_AL_1/0_Brenau_0_416_0_2_2_2_2
