New Load.load_p5ulv2306 conn=wye bus1=p5ulv2306.1.2 kV=0.2080002494301389 Vminpu=0.8 Vmaxpu=1.2 model=1 kW=1.0600100000000001 kvar=0.3499107480604964 Phases=2

New Load.load_p5ulv12966 conn=wye bus1=p5ulv12966.1.2 kV=0.2080002494301389 Vminpu=0.8 Vmaxpu=1.2 model=1 kW=15.650200000000002 kvar=3.1779086506542944 Phases=2

New Load.load_p5ulv14079 conn=wye bus1=p5ulv14079.1.2 kV=0.2080002494301389 Vminpu=0.8 Vmaxpu=1.2 model=1 kW=0.96001 kvar=0.3100554782231698 Phases=2

New Load.load_p5ulv14945 conn=wye bus1=p5ulv14945.1.2 kV=0.2080002494301389 Vminpu=0.8 Vmaxpu=1.2 model=1 kW=9.17009 kvar=3.0205659641143954 Phases=2

New Load.load_p5ulv16956 conn=wye bus1=p5ulv16956.1.2 kV=0.2080002494301389 Vminpu=0.8 Vmaxpu=1.2 model=1 kW=1.90002 kvar=0.6298838892551953 Phases=2

New Load.load_p5ulv16957 conn=wye bus1=p5ulv16957.1.2 kV=0.2080002494301389 Vminpu=0.8 Vmaxpu=1.2 model=1 kW=7.46007 kvar=1.5187308031441193 Phases=2

New Load.load_p5ulv20144 conn=wye bus1=p5ulv20144.1.2.3 kV=0.48 Vminpu=0.8 Vmaxpu=1.2 model=1 kW=69.5807 kvar=14.128963747976462 Phases=3

New Load.load_p5ulv20154 conn=wye bus1=p5ulv20154.1.2 kV=0.2080002494301389 Vminpu=0.8 Vmaxpu=1.2 model=1 kW=7.99008 kvar=1.6182694613892477 Phases=2

New Load.load_p5ulv20702 conn=wye bus1=p5ulv20702.1.2.3 kV=0.48 Vminpu=0.8 Vmaxpu=1.2 model=1 kW=75.61079999999998 kvar=15.353427777465571 Phases=3

New Load.load_p5ulv22910 conn=wye bus1=p5ulv22910.1.2.3 kV=0.48 Vminpu=0.8 Vmaxpu=1.2 model=1 kW=22.9902 kvar=4.668359219707886 Phases=3

New Load.load_p5ulv22911 conn=wye bus1=p5ulv22911.1.2.3 kV=0.48 Vminpu=0.8 Vmaxpu=1.2 model=1 kW=69.4407 kvar=14.100535535487703 Phases=3

New Load.load_p5ulv23453 conn=wye bus1=p5ulv23453.1.2 kV=0.2080002494301389 Vminpu=0.8 Vmaxpu=1.2 model=1 kW=8.71009 kvar=1.768659209401634 Phases=2

New Load.load_p5ulv24053 conn=wye bus1=p5ulv24053.1.2 kV=0.2080002494301389 Vminpu=0.8 Vmaxpu=1.2 model=1 kW=2.68003 kvar=0.5399819708887028 Phases=2

New Load.load_p5ulv24596 conn=wye bus1=p5ulv24596.1.2.3 kV=0.48 Vminpu=0.8 Vmaxpu=1.2 model=1 kW=35.9004 kvar=7.289887140225007 Phases=3

New Load.load_p5ulv25736 conn=wye bus1=p5ulv25736.1.2.3 kV=0.48 Vminpu=0.8 Vmaxpu=1.2 model=1 kW=27.810300000000005 kvar=5.6471222698298496 Phases=3

New Load.load_p5ulv26816 conn=wye bus1=p5ulv26816.1.2 kV=0.2080002494301389 Vminpu=0.8 Vmaxpu=1.2 model=1 kW=18.9002 kvar=3.837849297714808 Phases=2

New Load.load_p5ulv27981 conn=wye bus1=p5ulv27981.1.2 kV=0.2080002494301389 Vminpu=0.8 Vmaxpu=1.2 model=1 kW=0.440004 kvar=0.1500168704752404 Phases=2

New Load.load_p5ulv31336 conn=wye bus1=p5ulv31336.1.2.3 kV=0.48 Vminpu=0.8 Vmaxpu=1.2 model=1 kW=27.810300000000005 kvar=5.6471222698298496 Phases=3

New Load.load_p5ulv35701 conn=wye bus1=p5ulv35701.1.2.3 kV=0.48 Vminpu=0.8 Vmaxpu=1.2 model=1 kW=37.5004 kvar=7.614780997239415 Phases=3

New Load.load_p5ulv36847 conn=wye bus1=p5ulv36847.1.2.3 kV=0.48 Vminpu=0.8 Vmaxpu=1.2 model=1 kW=141.031 kvar=28.63756596787426 Phases=3

New Load.load_p5ulv37423 conn=wye bus1=p5ulv37423.1.2 kV=0.2080002494301389 Vminpu=0.8 Vmaxpu=1.2 model=1 kW=1.01001 kvar=0.3301787578020665 Phases=2

New Load.load_p5ulv40147 conn=wye bus1=p5ulv40147.1.2 kV=0.2080002494301389 Vminpu=0.8 Vmaxpu=1.2 model=1 kW=2.27002 kvar=0.750139480402204 Phases=2

New Load.load_p5ulv40725 conn=wye bus1=p5ulv40725.1.2 kV=0.2080002494301389 Vminpu=0.8 Vmaxpu=1.2 model=1 kW=0.9900100000000001 kvar=0.3299452313439445 Phases=2

New Load.load_p5ulv45773 conn=wye bus1=p5ulv45773.1.2.3 kV=0.48 Vminpu=0.8 Vmaxpu=1.2 model=1 kW=61.06060000000001 kvar=12.398883653508683 Phases=3

New Load.load_p5ulv45783 conn=wye bus1=p5ulv45783.1.2 kV=0.2080002494301389 Vminpu=0.8 Vmaxpu=1.2 model=1 kW=2.75003 kvar=0.8999817157751796 Phases=2

New Load.load_p5ulv47366 conn=wye bus1=p5ulv47366.1.2.3 kV=0.48 Vminpu=0.8 Vmaxpu=1.2 model=1 kW=55.5406 kvar=11.277999846808978 Phases=3

New Load.load_p5ulv47376 conn=wye bus1=p5ulv47376.1.2 kV=0.2080002494301389 Vminpu=0.8 Vmaxpu=1.2 model=1 kW=4.450040000000001 kvar=1.4594967629095847 Phases=2

New Load.load_p5ulv49074 conn=wye bus1=p5ulv49074.1.2 kV=0.2080002494301389 Vminpu=0.8 Vmaxpu=1.2 model=1 kW=19.360200000000003 kvar=3.9312562816064496 Phases=2

New Load.load_p5ulv49639 conn=wye bus1=p5ulv49639.1.2 kV=0.2080002494301389 Vminpu=0.8 Vmaxpu=1.2 model=1 kW=1.33001 kvar=0.43997846299054816 Phases=2

New Load.load_p5ulv50199 conn=wye bus1=p5ulv50199.1.2.3 kV=0.48 Vminpu=0.8 Vmaxpu=1.2 model=1 kW=103.491 kvar=21.01474384767374 Phases=3

New Load.load_p5ulv50200 conn=wye bus1=p5ulv50200.1.2.3 kV=0.48 Vminpu=0.8 Vmaxpu=1.2 model=1 kW=35.6804 kvar=7.245214234885527 Phases=3

New Load.load_p5ulv53558 conn=wye bus1=p5ulv53558.1.2.3 kV=0.48 Vminpu=0.8 Vmaxpu=1.2 model=1 kW=59.69060000000001 kvar=12.120693288440098 Phases=3

New Load.load_p5ulv57542 conn=wye bus1=p5ulv57542.1.2 kV=0.2080002494301389 Vminpu=0.8 Vmaxpu=1.2 model=1 kW=1.68002 kvar=0.5498075592399418 Phases=2

New Load.load_p5ulv58660 conn=wye bus1=p5ulv58660.1.2.3 kV=0.48 Vminpu=0.8 Vmaxpu=1.2 model=1 kW=103.821 kvar=21.081753205682958 Phases=3

New Load.load_p5ulv59239 conn=wye bus1=p5ulv59239.1.2 kV=0.2080002494301389 Vminpu=0.8 Vmaxpu=1.2 model=1 kW=18.520200000000003 kvar=6.087295364733581 Phases=2

New Load.load_p5ulv59817 conn=wye bus1=p5ulv59817.1.2.3 kV=0.48 Vminpu=0.8 Vmaxpu=1.2 model=1 kW=108.48100000000001 kvar=22.028006564237423 Phases=3

New Load.load_p5ulv60410 conn=wye bus1=p5ulv60410.1.2 kV=0.2080002494301389 Vminpu=0.8 Vmaxpu=1.2 model=1 kW=1.55002 kvar=0.5100167586624277 Phases=2

New Load.load_p5ulv64323 conn=wye bus1=p5ulv64323.1.2.3 kV=0.48 Vminpu=0.8 Vmaxpu=1.2 model=1 kW=51.8405 kvar=10.5266624965971 Phases=3

New Load.load_p5ulv65958 conn=wye bus1=p5ulv65958.1.2 kV=0.2080002494301389 Vminpu=0.8 Vmaxpu=1.2 model=1 kW=11.2201 kvar=2.2783384781795917 Phases=2

New Load.load_p5ulv68165 conn=wye bus1=p5ulv68165.1.2.3 kV=0.48 Vminpu=0.8 Vmaxpu=1.2 model=1 kW=136.961 kvar=27.811117219093866 Phases=3

New Load.load_p5ulv70997 conn=wye bus1=p5ulv70997.1.2.3 kV=0.48 Vminpu=0.8 Vmaxpu=1.2 model=1 kW=104.48100000000001 kvar=21.215771921701403 Phases=3

New Load.load_p5ulv71005 conn=wye bus1=p5ulv71005.1.2 kV=0.2080002494301389 Vminpu=0.8 Vmaxpu=1.2 model=1 kW=0.270003 kvar=0.08998515398688807 Phases=2

New Load.load_p5ulv71006 conn=wye bus1=p5ulv71006.1.2 kV=0.2080002494301389 Vminpu=0.8 Vmaxpu=1.2 model=1 kW=0.680007 kvar=0.22995750373466176 Phases=2

New Load.load_p5ulv73202 conn=wye bus1=p5ulv73202.1.2 kV=0.2080002494301389 Vminpu=0.8 Vmaxpu=1.2 model=1 kW=0.620006 kvar=0.20002114980484142 Phases=2

New Load.load_p5ulv73781 conn=wye bus1=p5ulv73781.1.2 kV=0.2080002494301389 Vminpu=0.8 Vmaxpu=1.2 model=1 kW=0.390004 kvar=0.12997844466728997 Phases=2

New Load.load_p5ulv75459 conn=wye bus1=p5ulv75459.1.2.3 kV=0.48 Vminpu=0.8 Vmaxpu=1.2 model=1 kW=90.1509 kvar=18.305921008950055 Phases=3

New Load.load_p5ulv76536 conn=wye bus1=p5ulv76536.1.2.3 kV=0.48 Vminpu=0.8 Vmaxpu=1.2 model=1 kW=29.280300000000004 kvar=5.945618500961837 Phases=3

New Load.load_p5ulv76537 conn=wye bus1=p5ulv76537.1.2 kV=0.2080002494301389 Vminpu=0.8 Vmaxpu=1.2 model=1 kW=13.6601 kvar=2.766645974699035 Phases=2

New Load.load_p5ulv77782 conn=wye bus1=p5ulv77782.1.2 kV=0.2080002494301389 Vminpu=0.8 Vmaxpu=1.2 model=1 kW=0.490005 kvar=0.16001116456332976 Phases=2

New Load.load_p5ulv77783 conn=wye bus1=p5ulv77783.1.2 kV=0.2080002494301389 Vminpu=0.8 Vmaxpu=1.2 model=1 kW=2.27002 kvar=0.750139480402204 Phases=2

New Load.load_p5ulv77913 conn=wye bus1=p5ulv77913.1.2 kV=0.2080002494301389 Vminpu=0.8 Vmaxpu=1.2 model=1 kW=1.33001 kvar=0.43997846299054816 Phases=2

