New Transformer.sb1_p5uhs10_1247_trans_29 phases=3 windings=2 wdg=1 conn=delta Kv=69.0 kva=10000.0 %R=0.4808326112068523 bus=sb1_p5uhs10_1247_node_1_3 wdg=2 conn=wye Kv=12.47 kva=10000.0 %R=0.4808326112068523 bus=sb1_p5uhs10_1247_node_1_4 XHL=6.731656556895932

