New Line.sb12_p1uhs9_1247_717 Units=km Length=0.061895478 bus1=sb12_p1uhs9_1247_bus_12_29.1.2.3 bus2=sb12_p1uhs9_1247_node_12_16.1.2.3 switch=n enabled=y phases=3 Linecode=3P_OH_Code7_3_3_3

New Line.sb12_p1uhs9_1247_669 Units=km Length=0.09800117500000001 bus1=sb12_p1uhs9_1247_bus_12_19.1.2.3 bus2=p1udt19234-p1uhs9_1247x.1.2.3 switch=n enabled=y phases=3 Linecode=3P_OH_Code7_3_3_3

New Line.sb12_p1uhs9_1247_673 Units=km Length=0.144422784 bus1=sb12_p1uhs9_1247_bus_12_11.1.2.3 bus2=p1udt20692-p1uhs9_1247x.1.2.3 switch=n enabled=y phases=3 Linecode=3P_OH_Code7_3_3_3

New Line.sb12_p1uhs9_1247_671 Units=km Length=0.123790958 bus1=sb12_p1uhs9_1247_bus_12_9.1.2.3 bus2=p1udt25123-p1uhs9_1247x.1.2.3 switch=n enabled=y phases=3 Linecode=3P_OH_Code7_3_3_3

New Line.sb12_p1uhs9_1247_665 Units=km Length=0.077369349 bus1=sb12_p1uhs9_1247_bus_12_15.1.2.3 bus2=p1udt13121-p1uhs9_1247x.1.2.3 switch=n enabled=y phases=3 Linecode=3P_OH_Code7_3_3_3

New Line.sb12_p1uhs9_1247_667 Units=km Length=0.123790958 bus1=sb12_p1uhs9_1247_bus_12_17.1.2.3 bus2=p1udt387-p1uhs9_1247x.1.2.3 switch=n enabled=y phases=3 Linecode=3P_OH_Code7_3_3_3

New Line.sb12_p1uhs9_1247_675 Units=km Length=0.123790958 bus1=sb12_p1uhs9_1247_bus_12_13.1.2.3 bus2=p1udt22325-p1uhs9_1247x.1.2.3 switch=n enabled=y phases=3 Linecode=3P_OH_Code7_3_3_3

New Line.sb12_p1uhs9_1247_714 Units=km Length=0.061895478 bus1=sb12_p1uhs9_1247_bus_12_26.1.2.3 bus2=p1udt22357-p1uhs9_1247x.1.2.3 switch=n enabled=y phases=3 Linecode=3P_OH_Code7_3_3_3

New Line.sb12_p1uhs9_1247_716 Units=km Length=0.061895478 bus1=sb12_p1uhs9_1247_bus_12_28.1.2.3 bus2=p1udt13187-p1uhs9_1247x.1.2.3 switch=n enabled=y phases=3 Linecode=3P_OH_Code7_3_3_3

New Line.sb12_p1uhs9_1247_672 Units=km Length=0.144422784 bus1=sb12_p1uhs9_1247_bus_12_10.1.2.3 bus2=p1udt21819-p1uhs9_1247x.1.2.3 switch=n enabled=y phases=3 Linecode=3P_OH_Code7_3_3_3

New Line.sb12_p1uhs9_1247_668 Units=km Length=0.077369349 bus1=sb12_p1uhs9_1247_bus_12_18.1.2.3 bus2=p1udt20546-p1uhs9_1247x.1.2.3 switch=n enabled=y phases=3 Linecode=3P_OH_Code7_3_3_3

New Line.sb12_p1uhs9_1247_670 Units=km Length=0.123790958 bus1=sb12_p1uhs9_1247_bus_12_20.1.2.3 bus2=p1udt20362-p1uhs9_1247x.1.2.3 switch=n enabled=y phases=3 Linecode=3P_OH_Code7_3_3_3

New Line.sb12_p1uhs9_1247_676 Units=km Length=0.103159132 bus1=sb12_p1uhs9_1247_bus_12_14.1.2.3 bus2=p1udt6854-p1uhs9_1247x.1.2.3 switch=n enabled=y phases=3 Linecode=3P_OH_Code7_3_3_3

New Line.sb12_p1uhs9_1247_674 Units=km Length=0.144422784 bus1=sb12_p1uhs9_1247_bus_12_12.1.2.3 bus2=sb12_p1uhs9_1247_node_12_10.1.2.3 switch=n enabled=y phases=3 Linecode=3P_OH_Code7_3_3_3

New Line.sb12_p1uhs9_1247_666 Units=km Length=0.09284321799999999 bus1=sb12_p1uhs9_1247_bus_12_16.1.2.3 bus2=p1udt4409-p1uhs9_1247x.1.2.3 switch=n enabled=y phases=3 Linecode=3P_OH_Code7_3_3_3

New Line.sb12_p1uhs9_1247_715 Units=km Length=0.061895478 bus1=sb12_p1uhs9_1247_bus_12_27.1.2.3 bus2=p1udt21523-p1uhs9_1247x.1.2.3 switch=n enabled=y phases=3 Linecode=3P_OH_Code7_3_3_3

New Line.sb12_p1uhs9_1247_694 Units=km Length=0.001 bus1=sb12_p1uhs9_1247_node_12_34.1.2.3 bus2=sb12_p1uhs9_1247_node_12_38.1.2.3 switch=y enabled=y phases=3 Linecode=BREAKER_13KV_3_3_3_3

New Line.sb12_p1uhs9_1247_708 Units=km Length=0.001 bus1=sb12_p1uhs9_1247_node_12_40.1.2.3 bus2=sb12_p1uhs9_1247_bus_12_28.1.2.3 switch=y enabled=y phases=3 Linecode=DISCONNECT_SWITCH_13KV_3_3_3_3

New Line.sb12_p1uhs9_1247_728 Units=km Length=0.001 bus1=sb12_p1uhs9_1247_node_12_18.1.2.3 bus2=sb12_p1uhs9_1247_bus_12_1.1.2.3 switch=y enabled=y phases=3 Linecode=DISCONNECT_SWITCH_69KV_3_3_3_3

New Line.sb12_p1uhs9_1247_657 Units=km Length=0.001 bus1=sb12_p1uhs9_1247_bus_12_8.1.2.3 bus2=sb12_p1uhs9_1247_bus_12_13.1.2.3 switch=y enabled=y phases=3 Linecode=BREAKER_13KV_3_3_3_3

New Line.sb12_p1uhs9_1247_696 Units=km Length=0.001 bus1=sb12_p1uhs9_1247_node_12_35.1.2.3 bus2=sb12_p1uhs9_1247_node_12_39.1.2.3 switch=y enabled=y phases=3 Linecode=BREAKER_13KV_3_3_3_3

New Line.sb12_p1uhs9_1247_711 Units=km Length=0.001 bus1=sb12_p1uhs9_1247_bus_12_27.1.2.3 bus2=sb12_p1uhs9_1247_bus_12_25.1.2.3 switch=y enabled=n phases=3 Linecode=DISCONNECT_SWITCH_13KV_3_3_3_3

New Line.sb12_p1uhs9_1247_649 Units=km Length=0.001 bus1=sb12_p1uhs9_1247_bus_12_7.1.2.3 bus2=sb12_p1uhs9_1247_bus_12_10.1.2.3 switch=y enabled=y phases=3 Linecode=BREAKER_13KV_3_3_3_3

New Line.sb12_p1uhs9_1247_651 Units=km Length=0.001 bus1=sb12_p1uhs9_1247_bus_12_4.1.2.3 bus2=sb12_p1uhs9_1247_bus_12_8.1.2.3 switch=y enabled=y phases=3 Linecode=DISCONNECT_SWITCH_13KV_3_3_3_3

New Line.sb12_p1uhs9_1247_646 Units=km Length=0.001 bus1=sb12_p1uhs9_1247_bus_12_5.1.2.3 bus2=sb12_p1uhs9_1247_bus_12_16.1.2.3 switch=y enabled=y phases=3 Linecode=BREAKER_13KV_3_3_3_3

New Line.sb12_p1uhs9_1247_680 Units=km Length=0.001 bus1=sb12_p1uhs9_1247_node_12_25.1.2.3 bus2=sb12_p1uhs9_1247_bus_12_1.1.2.3 switch=y enabled=y phases=3 Linecode=DISCONNECT_SWITCH_69KV_3_3_3_3

New Line.sb12_p1uhs9_1247_698 Units=km Length=0.001 bus1=sb12_p1uhs9_1247_node_12_36.1.2.3 bus2=sb12_p1uhs9_1247_node_12_40.1.2.3 switch=y enabled=y phases=3 Linecode=BREAKER_13KV_3_3_3_3

New Line.sb12_p1uhs9_1247_713 Units=km Length=0.001 bus1=sb12_p1uhs9_1247_bus_12_29.1.2.3 bus2=sb12_p1uhs9_1247_bus_12_25.1.2.3 switch=y enabled=n phases=3 Linecode=DISCONNECT_SWITCH_13KV_3_3_3_3

New Line.sb12_p1uhs9_1247_724 Units=km Length=0.001 bus1=sb12_p1uhs9_1247_node_12_23.1.2.3 bus2=sb12_p1uhs9_1247_bus_12_23.1.2.3 switch=y enabled=y phases=3 Linecode=DISCONNECT_SWITCH_69KV_3_3_3_3

New Line.sb12_p1uhs9_1247_653 Units=km Length=0.001 bus1=sb12_p1uhs9_1247_bus_12_6.1.2.3 bus2=sb12_p1uhs9_1247_bus_12_20.1.2.3 switch=y enabled=y phases=3 Linecode=BREAKER_13KV_3_3_3_3

New Line.sb12_p1uhs9_1247_644 Units=km Length=0.001 bus1=sb12_p1uhs9_1247_bus_12_3.1.2.3 bus2=sb12_p1uhs9_1247_bus_12_7.1.2.3 switch=y enabled=y phases=3 Linecode=DISCONNECT_SWITCH_13KV_3_3_3_3

New Line.sb12_p1uhs9_1247_703 Units=km Length=0.001 bus1=sb12_p1uhs9_1247_node_12_36.1.2.3 bus2=sb12_p1uhs9_1247_bus_12_24.1.2.3 switch=y enabled=y phases=3 Linecode=DISCONNECT_SWITCH_13KV_3_3_3_3

New Line.sb12_p1uhs9_1247_677 Units=km Length=0.001 bus1=sb12_p1uhs9_1247_node_12_31.1.2.3 bus2=sb12_p1uhs9_1247_bus_12_3.1.2.3 switch=y enabled=y phases=3 Linecode=BREAKER_13KV_3_3_3_3

New Line.sb12_p1uhs9_1247_684 Units=km Length=0.001 bus1=sb12_p1uhs9_1247_node_12_22.1.2.3 bus2=sb12_p1uhs9_1247_bus_12_23.1.2.3 switch=y enabled=y phases=3 Linecode=DISCONNECT_SWITCH_69KV_3_3_3_3

New Line.sb12_p1uhs9_1247_701 Units=km Length=0.001 bus1=sb12_p1uhs9_1247_node_12_34.1.2.3 bus2=sb12_p1uhs9_1247_bus_12_24.1.2.3 switch=y enabled=y phases=3 Linecode=DISCONNECT_SWITCH_13KV_3_3_3_3

New Line.sb12_p1uhs9_1247_659 Units=km Length=0.001 bus1=sb12_p1uhs9_1247_bus_12_11.1.2.3 bus2=sb12_p1uhs9_1247_bus_12_12.1.2.3 switch=y enabled=n phases=3 Linecode=BREAKER_13KV_3_3_3_3

New Line.sb12_p1uhs9_1247_639 Units=km Length=0.001 bus1=sb12_p1uhs9_1247_node_12_25.1.2.3 bus2=sb12_p1uhs9_1247_node_12_28.1.2.3 switch=y enabled=y phases=3 Linecode=BREAKER_69KV_3_3_3_3

New Line.sb12_p1uhs9_1247_678 Units=km Length=0.001 bus1=sb12_p1uhs9_1247_node_12_32.1.2.3 bus2=sb12_p1uhs9_1247_bus_12_4.1.2.3 switch=y enabled=y phases=3 Linecode=BREAKER_13KV_3_3_3_3

New Line.sb12_p1uhs9_1247_640 Units=km Length=0.001 bus1=sb12_p1uhs9_1247_node_12_26.1.2.3 bus2=sb12_p1uhs9_1247_node_12_29.1.2.3 switch=y enabled=y phases=3 Linecode=BREAKER_69KV_3_3_3_3

New Line.sb12_p1uhs9_1247_707 Units=km Length=0.001 bus1=sb12_p1uhs9_1247_node_12_39.1.2.3 bus2=sb12_p1uhs9_1247_bus_12_27.1.2.3 switch=y enabled=y phases=3 Linecode=DISCONNECT_SWITCH_13KV_3_3_3_3

New Line.sb12_p1uhs9_1247_661 Units=km Length=0.001 bus1=sb12_p1uhs9_1247_bus_12_9.1.2.3 bus2=sb12_p1uhs9_1247_bus_12_14.1.2.3 switch=y enabled=n phases=3 Linecode=BREAKER_13KV_3_3_3_3

New Line.sb12_p1uhs9_1247_637 Units=km Length=0.001 bus1=sb12_p1uhs9_1247_node_12_19.1.2.3 bus2=sb12_p1uhs9_1247_node_12_20.1.2.3 switch=y enabled=y phases=3 Linecode=BREAKER_69KV_3_3_3_3

New Line.sb12_p1uhs9_1247_705 Units=km Length=0.001 bus1=sb12_p1uhs9_1247_node_12_37.1.2.3 bus2=sb12_p1uhs9_1247_bus_12_24.1.2.3 switch=y enabled=y phases=3 Linecode=DISCONNECT_SWITCH_13KV_3_3_3_3

New Line.sb12_p1uhs9_1247_654 Units=km Length=0.001 bus1=sb12_p1uhs9_1247_bus_12_6.1.2.3 bus2=sb12_p1uhs9_1247_bus_12_19.1.2.3 switch=y enabled=y phases=3 Linecode=BREAKER_13KV_3_3_3_3

New Line.sb12_p1uhs9_1247_663 Units=km Length=0.001 bus1=sb12_p1uhs9_1247_bus_12_16.1.2.3 bus2=sb12_p1uhs9_1247_bus_12_19.1.2.3 switch=y enabled=n phases=3 Linecode=BREAKER_13KV_3_3_3_3

New Line.sb12_p1uhs9_1247_656 Units=km Length=0.001 bus1=sb12_p1uhs9_1247_bus_12_8.1.2.3 bus2=sb12_p1uhs9_1247_bus_12_12.1.2.3 switch=y enabled=y phases=3 Linecode=BREAKER_13KV_3_3_3_3

New Line.sb12_p1uhs9_1247_683 Units=km Length=0.001 bus1=sb12_p1uhs9_1247_node_12_21.1.2.3 bus2=sb12_p1uhs9_1247_node_12_22.1.2.3 switch=y enabled=n phases=3 Linecode=BREAKER_69KV_3_3_3_3

New Line.sb12_p1uhs9_1247_709 Units=km Length=0.001 bus1=sb12_p1uhs9_1247_node_12_41.1.2.3 bus2=sb12_p1uhs9_1247_bus_12_29.1.2.3 switch=y enabled=y phases=3 Linecode=DISCONNECT_SWITCH_13KV_3_3_3_3

New Line.sb12_p1uhs9_1247_729 Units=km Length=0.001 bus1=sb12_p1uhs9_1247_node_12_17.1.2.3 bus2=sb12_p1uhs9_1247_bus_12_30.1.2.3 switch=y enabled=y phases=3 Linecode=DISCONNECT_SWITCH_69KV_3_3_3_3

New Line.sb12_p1uhs9_1247_650 Units=km Length=0.001 bus1=sb12_p1uhs9_1247_bus_12_7.1.2.3 bus2=sb12_p1uhs9_1247_bus_12_11.1.2.3 switch=y enabled=y phases=3 Linecode=BREAKER_13KV_3_3_3_3

New Line.sb12_p1uhs9_1247_647 Units=km Length=0.001 bus1=sb12_p1uhs9_1247_bus_12_5.1.2.3 bus2=sb12_p1uhs9_1247_bus_12_15.1.2.3 switch=y enabled=y phases=3 Linecode=BREAKER_13KV_3_3_3_3

New Line.sb12_p1uhs9_1247_681 Units=km Length=0.001 bus1=sb12_p1uhs9_1247_node_12_26.1.2.3 bus2=sb12_p1uhs9_1247_bus_12_2.1.2.3 switch=y enabled=y phases=3 Linecode=DISCONNECT_SWITCH_69KV_3_3_3_3

New Line.sb12_p1uhs9_1247_710 Units=km Length=0.001 bus1=sb12_p1uhs9_1247_bus_12_26.1.2.3 bus2=sb12_p1uhs9_1247_bus_12_25.1.2.3 switch=y enabled=n phases=3 Linecode=DISCONNECT_SWITCH_13KV_3_3_3_3

New Line.sb12_p1uhs9_1247_730 Units=km Length=0.001 bus1=sb12_p1uhs9_1247_node_12_21.1.2.3 bus2=sb12_p1uhs9_1247_bus_12_2.1.2.3 switch=y enabled=y phases=3 Linecode=DEFAULT_3_3_3_3

New Line.sb12_p1uhs9_1247_648 Units=km Length=0.001 bus1=sb12_p1uhs9_1247_bus_12_7.1.2.3 bus2=sb12_p1uhs9_1247_bus_12_9.1.2.3 switch=y enabled=y phases=3 Linecode=BREAKER_13KV_3_3_3_3

New Line.sb12_p1uhs9_1247_652 Units=km Length=0.001 bus1=sb12_p1uhs9_1247_bus_12_4.1.2.3 bus2=sb12_p1uhs9_1247_bus_12_6.1.2.3 switch=y enabled=y phases=3 Linecode=DISCONNECT_SWITCH_13KV_3_3_3_3

New Line.sb12_p1uhs9_1247_645 Units=km Length=0.001 bus1=sb12_p1uhs9_1247_bus_12_5.1.2.3 bus2=sb12_p1uhs9_1247_bus_12_17.1.2.3 switch=y enabled=y phases=3 Linecode=BREAKER_13KV_3_3_3_3

New Line.sb12_p1uhs9_1247_702 Units=km Length=0.001 bus1=sb12_p1uhs9_1247_node_12_35.1.2.3 bus2=sb12_p1uhs9_1247_bus_12_24.1.2.3 switch=y enabled=y phases=3 Linecode=DISCONNECT_SWITCH_13KV_3_3_3_3

New Line.sb12_p1uhs9_1247_712 Units=km Length=0.001 bus1=sb12_p1uhs9_1247_bus_12_28.1.2.3 bus2=sb12_p1uhs9_1247_bus_12_25.1.2.3 switch=y enabled=n phases=3 Linecode=DISCONNECT_SWITCH_13KV_3_3_3_3

New Line.sb12_p1uhs9_1247_725 Units=km Length=0.001 bus1=sb12_p1uhs9_1247_node_12_24.1.2.3 bus2=sb12_p1uhs9_1247_bus_12_30.1.2.3 switch=y enabled=y phases=3 Linecode=DISCONNECT_SWITCH_69KV_3_3_3_3

New Line.sb12_p1uhs9_1247_643 Units=km Length=0.001 bus1=sb12_p1uhs9_1247_bus_12_3.1.2.3 bus2=sb12_p1uhs9_1247_bus_12_5.1.2.3 switch=y enabled=y phases=3 Linecode=DISCONNECT_SWITCH_13KV_3_3_3_3

New Line.sb12_p1uhs9_1247_700 Units=km Length=0.001 bus1=sb12_p1uhs9_1247_node_12_37.1.2.3 bus2=sb12_p1uhs9_1247_node_12_41.1.2.3 switch=y enabled=y phases=3 Linecode=BREAKER_13KV_3_3_3_3

New Line.sb12_p1uhs9_1247_664 Units=km Length=0.001 bus1=sb12_p1uhs9_1247_bus_12_15.1.2.3 bus2=sb12_p1uhs9_1247_bus_12_18.1.2.3 switch=y enabled=n phases=3 Linecode=BREAKER_13KV_3_3_3_3

New Line.sb12_p1uhs9_1247_658 Units=km Length=0.001 bus1=sb12_p1uhs9_1247_bus_12_8.1.2.3 bus2=sb12_p1uhs9_1247_bus_12_14.1.2.3 switch=y enabled=y phases=3 Linecode=BREAKER_13KV_3_3_3_3

New Line.sb12_p1uhs9_1247_638 Units=km Length=0.001 bus1=sb12_p1uhs9_1247_node_12_20.1.2.3 bus2=sb12_p1uhs9_1247_bus_12_2.1.2.3 switch=y enabled=y phases=3 Linecode=DISCONNECT_SWITCH_69KV_3_3_3_3

New Line.sb12_p1uhs9_1247_727 Units=km Length=0.001 bus1=sb12_p1uhs9_1247_node_12_17.1.2.3 bus2=sb12_p1uhs9_1247_node_12_18.1.2.3 switch=y enabled=y phases=3 Linecode=BREAKER_69KV_3_3_3_3

New Line.sb12_p1uhs9_1247_706 Units=km Length=0.001 bus1=sb12_p1uhs9_1247_node_12_38.1.2.3 bus2=sb12_p1uhs9_1247_bus_12_26.1.2.3 switch=y enabled=y phases=3 Linecode=DISCONNECT_SWITCH_13KV_3_3_3_3

New Line.sb12_p1uhs9_1247_636 Units=km Length=0.001 bus1=p1uhs9_69.1.2.3 bus2=sb12_p1uhs9_1247_bus_12_30.1.2.3 switch=y enabled=y phases=3 Linecode=DISCONNECT_SWITCH_69KV_3_3_3_3

New Line.sb12_p1uhs9_1247_690 Units=km Length=0.001 bus1=sb12_p1uhs9_1247_node_12_27.1.2.3 bus2=sb12_p1uhs9_1247_node_12_30.1.2.3 switch=n enabled=y phases=3 Linecode=FUSE_1_69KV_3_3_3_3

New Fuse.Fuse_sb12_p1uhs9_1247_690 monitoredobj=Line.sb12_p1uhs9_1247_690 enabled=y ratedcurrent=600.0

New Line.sb12_p1uhs9_1247_679 Units=km Length=0.001 bus1=sb12_p1uhs9_1247_node_12_19.1.2.3 bus2=sb12_p1uhs9_1247_bus_12_1.1.2.3 switch=y enabled=y phases=3 Linecode=DISCONNECT_SWITCH_69KV_3_3_3_3

New Line.sb12_p1uhs9_1247_689 Units=km Length=0.001 bus1=sb12_p1uhs9_1247_node_12_33.1.2.3 bus2=sb12_p1uhs9_1247_bus_12_24.1.2.3 switch=y enabled=y phases=3 Linecode=BREAKER_13KV_3_3_3_3

New Line.sb12_p1uhs9_1247_660 Units=km Length=0.001 bus1=sb12_p1uhs9_1247_bus_12_10.1.2.3 bus2=sb12_p1uhs9_1247_bus_12_13.1.2.3 switch=y enabled=n phases=3 Linecode=BREAKER_13KV_3_3_3_3

New Line.sb12_p1uhs9_1247_692 Units=km Length=0.001 bus1=sb12_p1uhs9_1247_node_12_27.1.2.3 bus2=sb12_p1uhs9_1247_bus_12_23.1.2.3 switch=y enabled=y phases=3 Linecode=DISCONNECT_SWITCH_13KV_3_3_3_3

New Line.sb12_p1uhs9_1247_723 Units=km Length=0.001 bus1=sb12_p1uhs9_1247_node_12_24.1.2.3 bus2=sb12_p1uhs9_1247_node_12_23.1.2.3 switch=y enabled=y phases=3 Linecode=BREAKER_69KV_3_3_3_3

New Line.sb12_p1uhs9_1247_655 Units=km Length=0.001 bus1=sb12_p1uhs9_1247_bus_12_6.1.2.3 bus2=sb12_p1uhs9_1247_bus_12_18.1.2.3 switch=y enabled=y phases=3 Linecode=BREAKER_13KV_3_3_3_3

New Line.sb12_p1uhs9_1247_662 Units=km Length=0.001 bus1=sb12_p1uhs9_1247_bus_12_17.1.2.3 bus2=sb12_p1uhs9_1247_bus_12_20.1.2.3 switch=y enabled=n phases=3 Linecode=BREAKER_13KV_3_3_3_3

