New Transformer.sb12_p1uhs9_1247_trans_642 phases=3 windings=2 wdg=1 conn=delta Kv=69.0 kva=30000.0 %R=0.39801487608399566 bus=sb12_p1uhs9_1247_node_12_29 wdg=2 conn=wye Kv=12.47 kva=30000.0 %R=0.39801487608399566 bus=sb12_p1uhs9_1247_node_12_32 XHL=7.960297521679914

New Transformer.sb12_p1uhs9_1247_trans_688 phases=3 windings=2 wdg=1 conn=delta Kv=69.0 kva=22400.0 %R=0.370153834758116 bus=sb12_p1uhs9_1247_node_12_30 wdg=2 conn=wye Kv=12.47 kva=22400.0 %R=0.370153834758116 bus=sb12_p1uhs9_1247_node_12_33 XHL=7.40307669516232

New Transformer.sb12_p1uhs9_1247_trans_641 phases=3 windings=2 wdg=1 conn=delta Kv=69.0 kva=30000.0 %R=0.39801487608399566 bus=sb12_p1uhs9_1247_node_12_28 wdg=2 conn=wye Kv=12.47 kva=30000.0 %R=0.39801487608399566 bus=sb12_p1uhs9_1247_node_12_31 XHL=7.960297521679914

