New Line.l(r:p1uhs2_69-p1uts1_69)p1ud3 Units=km Length=2.18509 bus1=p1uhs2_69-p1uts1_69xx.1.2.3 bus2=p1uhs2_69-p1uts1_69x.1.2.3 switch=n enabled=y phases=3 Linecode=3P_OH_AL_ACSR_477kcmil_Hawk_69_0_3_3_3_3

New Line.l(r:p1uhs2_69-p1uts1_69)p1ud3p1ud3 Units=km Length=2.18509 bus1=p1uhs2_69-p1uts1_69x_px_p.1.2.3 bus2=p1uhs2_69-p1uts1_69x_p.1.2.3 switch=n enabled=y phases=3 Linecode=3P_OH_AL_ACSR_477kcmil_Hawk_69_0_3_3_3_3

New Line.l(r:p1uhs8_69-p1uts1_69)p1ud3p1ud23 Units=km Length=1.8861800000000002 bus1=p1uhs8_69-p1uts1_69xx.1.2.3 bus2=p1uhs8_69-p1uts1_69x.1.2.3 switch=n enabled=y phases=3 Linecode=3P_OH_AL_ACSR_477kcmil_Hawk_69_0_3_3_3_3

New Line.l(r:p1uhs8_69-p1uts1_69)p1ud3p1ud23p1ud13 Units=km Length=1.8861800000000002 bus1=p1uhs8_69-p1uts1_69x_px_p.1.2.3 bus2=p1uhs8_69-p1uts1_69x_p.1.2.3 switch=n enabled=y phases=3 Linecode=3P_OH_AL_ACSR_477kcmil_Hawk_69_0_3_3_3_3

New Line.l(r:p1uhs8_69-p1uts1_69)p1ud3p1ud23p1ud23 Units=km Length=1.8861800000000002 bus1=p1uhs8_69-p1uts1_69x_px_p.1.2.3 bus2=p1uhs8_69-p1uts1_69x_p.1.2.3 switch=n enabled=y phases=3 Linecode=3P_OH_AL_ACSR_477kcmil_Hawk_69_0_3_3_3_3

New Line.l(r:p1uhs8_69-p1uts1_69)p1ud3p1ud23p1ud33 Units=km Length=1.8861800000000002 bus1=p1uhs8_69-p1uts1_69x_px_p.1.2.3 bus2=p1uhs8_69-p1uts1_69x_p.1.2.3 switch=n enabled=y phases=3 Linecode=3P_OH_AL_ACSR_477kcmil_Hawk_69_0_3_3_3_3

New Line.l(r:p1uhs16_69-p1uts4_69) Units=km Length=5.3461 bus1=p1uhs16_69-p1uts4_69xx.1.2.3 bus2=p1uhs16_69-p1uts4_69x.1.2.3 switch=n enabled=y phases=3 Linecode=3P_OH_AL_ACSR_477kcmil_Hawk_69_0_3_3_3_3

New Line.l(r:p1uhs13_69-p1uhs18_69) Units=km Length=4.8712100000000005 bus1=p1uhs13_69-p1uhs18_69xx.1.2.3 bus2=p1uhs13_69-p1uhs18_69x.1.2.3 switch=n enabled=y phases=3 Linecode=3P_OH_AL_ACSR_477kcmil_Hawk_69_0_3_3_3_3

New Line.l(r:p1uhs0_69-p1uhs3_69) Units=km Length=4.47699 bus1=p1uhs0_69-p1uhs3_69xx.1.2.3 bus2=p1uhs0_69-p1uhs3_69x.1.2.3 switch=n enabled=y phases=3 Linecode=3P_UG_AL_1000mcm_69_69_0_3_3_3_3

New Line.l(r:p1uhs19_69-p1uhs5_69) Units=km Length=4.46194 bus1=p1uhs19_69-p1uhs5_69xx.1.2.3 bus2=p1uhs19_69-p1uhs5_69x.1.2.3 switch=n enabled=y phases=3 Linecode=3P_OH_AL_ACSR_477kcmil_Hawk_69_0_3_3_3_3

New Line.l(r:p1uhs13_69-p1uts3_69) Units=km Length=4.10918 bus1=p1uhs13_69-p1uts3_69xx.1.2.3 bus2=p1uhs13_69-p1uts3_69x.1.2.3 switch=n enabled=y phases=3 Linecode=3P_OH_AL_ACSR_477kcmil_Hawk_69_0_3_3_3_3

New Line.l(r:p1uhs23_69-p1uts3_69) Units=km Length=3.7884200000000003 bus1=p1uhs23_69-p1uts3_69xx.1.2.3 bus2=p1uhs23_69-p1uts3_69x.1.2.3 switch=n enabled=y phases=3 Linecode=3P_OH_AL_ACSR_477kcmil_Hawk_69_0_3_3_3_3

New Line.l(r:p1uhs17_69-p1uhs5_69) Units=km Length=3.76378 bus1=p1uhs17_69-p1uhs5_69x.1.2.3 bus2=p1uhs17_69-p1uhs5_69xx.1.2.3 switch=n enabled=y phases=3 Linecode=3P_OH_AL_ACSR_477kcmil_Hawk_69_0_3_3_3_3

New Line.l(r:p1uhs1_69-p1uts1_69) Units=km Length=3.74435 bus1=p1uhs1_69-p1uts1_69xx.1.2.3 bus2=p1uhs1_69-p1uts1_69x.1.2.3 switch=n enabled=y phases=3 Linecode=3P_UG_AL_1000mcm_69_69_0_3_3_3_3

New Line.l(r:p1uhs16_69-p1uhs21_69) Units=km Length=3.72495 bus1=p1uhs16_69-p1uhs21_69x.1.2.3 bus2=p1uhs16_69-p1uhs21_69xx.1.2.3 switch=n enabled=y phases=3 Linecode=3P_OH_AL_ACSR_477kcmil_Hawk_69_0_3_3_3_3

New Line.l(r:p1uhs11_69-p1uhs15_69) Units=km Length=3.7148800000000004 bus1=p1uhs11_69-p1uhs15_69x.1.2.3 bus2=p1uhs11_69-p1uhs15_69xx.1.2.3 switch=n enabled=y phases=3 Linecode=3P_OH_AL_ACSR_477kcmil_Hawk_69_0_3_3_3_3

New Line.l(r:p1uhs18_69-p1uts4_69) Units=km Length=3.7095300000000004 bus1=p1uhs18_69-p1uts4_69xx.1.2.3 bus2=p1uhs18_69-p1uts4_69x.1.2.3 switch=n enabled=y phases=3 Linecode=3P_OH_AL_ACSR_477kcmil_Hawk_69_0_3_3_3_3

New Line.l(r:p1uhs22_69-p1uhs9_69) Units=km Length=3.66151 bus1=p1uhs22_69-p1uhs9_69x.1.2.3 bus2=p1uhs22_69-p1uhs9_69xx.1.2.3 switch=n enabled=y phases=3 Linecode=3P_OH_AL_ACSR_477kcmil_Hawk_69_0_3_3_3_3

New Line.l(r:p1uhs14_69-p1uhs17_69) Units=km Length=3.57811 bus1=p1uhs14_69-p1uhs17_69x.1.2.3 bus2=p1uhs14_69-p1uhs17_69xx.1.2.3 switch=n enabled=y phases=3 Linecode=3P_OH_AL_ACSR_477kcmil_Hawk_69_0_3_3_3_3

New Line.l(r:p1uhs4_69-p1uts2_69) Units=km Length=3.40224 bus1=p1uhs4_69-p1uts2_69xx.1.2.3 bus2=p1uhs4_69-p1uts2_69x.1.2.3 switch=n enabled=y phases=3 Linecode=3P_UG_AL_1000mcm_69_69_0_3_3_3_3

New Line.l(r:p1uhs20_69-p1uhs8_69) Units=km Length=3.28318 bus1=p1uhs20_69-p1uhs8_69xx.1.2.3 bus2=p1uhs20_69-p1uhs8_69x.1.2.3 switch=n enabled=y phases=3 Linecode=3P_OH_AL_ACSR_477kcmil_Hawk_69_0_3_3_3_3

New Line.l(r:p1uhs0_69-p1uhs6_69) Units=km Length=3.19184 bus1=p1uhs0_69-p1uhs6_69x.1.2.3 bus2=p1uhs0_69-p1uhs6_69xx.1.2.3 switch=n enabled=y phases=3 Linecode=3P_UG_AL_1000mcm_69_69_0_3_3_3_3

New Line.l(r:p1uhs2_69-p1uhs6_69) Units=km Length=2.65623 bus1=p1uhs2_69-p1uhs6_69x.1.2.3 bus2=p1uhs2_69-p1uhs6_69xx.1.2.3 switch=n enabled=y phases=3 Linecode=3P_OH_AL_ACSR_477kcmil_Hawk_69_0_3_3_3_3

New Line.l(r:p1uhs24_69-p1uts3_69) Units=km Length=2.64832 bus1=p1uhs24_69-p1uts3_69xx.1.2.3 bus2=p1uhs24_69-p1uts3_69x.1.2.3 switch=n enabled=y phases=3 Linecode=3P_OH_AL_ACSR_477kcmil_Hawk_69_0_3_3_3_3

New Line.l(r:p1uhs15_69-p1uts2_69) Units=km Length=2.46084 bus1=p1uhs15_69-p1uts2_69xx.1.2.3 bus2=p1uhs15_69-p1uts2_69x.1.2.3 switch=n enabled=y phases=3 Linecode=3P_UG_AL_1000mcm_69_69_0_3_3_3_3

New Line.l(r:p1uhs5_69-p1uts0_69) Units=km Length=2.29563 bus1=p1uhs5_69-p1uts0_69xx.1.2.3 bus2=p1uhs5_69-p1uts0_69x.1.2.3 switch=n enabled=y phases=3 Linecode=3P_OH_AL_ACSR_477kcmil_Hawk_69_0_3_3_3_3

New Line.l(r:p1uhs10_69-p1uts0_69) Units=km Length=2.1517200000000005 bus1=p1uhs10_69-p1uts0_69xx.1.2.3 bus2=p1uhs10_69-p1uts0_69x.1.2.3 switch=n enabled=y phases=3 Linecode=3P_OH_AL_ACSR_477kcmil_Hawk_69_0_3_3_3_3

New Line.l(r:p1uhs11_69-p1uhs4_69) Units=km Length=1.89945 bus1=p1uhs11_69-p1uhs4_69xx.1.2.3 bus2=p1uhs11_69-p1uhs4_69x.1.2.3 switch=n enabled=y phases=3 Linecode=3P_OH_AL_ACSR_477kcmil_Hawk_69_0_3_3_3_3

New Line.l(r:p1uhs14_69-p1uts0_69) Units=km Length=1.83862 bus1=p1uhs14_69-p1uts0_69xx.1.2.3 bus2=p1uhs14_69-p1uts0_69x.1.2.3 switch=n enabled=y phases=3 Linecode=3P_OH_AL_ACSR_477kcmil_Hawk_69_0_3_3_3_3

New Line.l(r:p1uhs3_69-p1uts0_69) Units=km Length=1.82973 bus1=p1uhs3_69-p1uts0_69xx.1.2.3 bus2=p1uhs3_69-p1uts0_69x.1.2.3 switch=n enabled=y phases=3 Linecode=3P_UG_AL_1000mcm_69_69_0_3_3_3_3

New Line.l(r:p1uhs9_69-p1uts3_69) Units=km Length=1.72864 bus1=p1uhs9_69-p1uts3_69xx.1.2.3 bus2=p1uhs9_69-p1uts3_69x.1.2.3 switch=n enabled=y phases=3 Linecode=3P_OH_AL_ACSR_477kcmil_Hawk_69_0_3_3_3_3

New Line.l(r:p1uhs12_69-p1uts4_69) Units=km Length=1.60243 bus1=p1uhs12_69-p1uts4_69xx.1.2.3 bus2=p1uhs12_69-p1uts4_69x.1.2.3 switch=n enabled=y phases=3 Linecode=3P_OH_AL_ACSR_477kcmil_Hawk_69_0_3_3_3_3

New Line.l(r:p1uhs22_69-p1uhs7_69) Units=km Length=1.13005 bus1=p1uhs22_69-p1uhs7_69xx.1.2.3 bus2=p1uhs22_69-p1uhs7_69x.1.2.3 switch=n enabled=y phases=3 Linecode=3P_UG_AL_1000mcm_69_69_0_3_3_3_3

New Line.l(r:p1uhs7_69-p1uts2_69) Units=km Length=0.352312 bus1=p1uhs7_69-p1uts2_69xx.1.2.3 bus2=p1uhs7_69-p1uts2_69x.1.2.3 switch=n enabled=y phases=3 Linecode=3P_UG_AL_1000mcm_69_69_0_3_3_3_3

New Line.breaker(r:p1uts0_69-st_mat)p1u_265655 Units=km Length=0.001 bus1=st_mat.1.2.3 bus2=p1uts0_69-st_matxx.1.2.3 switch=y enabled=y phases=3 Linecode=breaker_3_3_3_3

New Line.breaker(r:p1uts0_69-st_mat)p1u_265656 Units=km Length=0.001 bus1=p1uts0_69-st_matx.1.2.3 bus2=p1uts0_69.1.2.3 switch=y enabled=y phases=3 Linecode=breaker_3_3_3_3

New Line.breaker(r:p1uts1_69-st_mat)p1u_265657 Units=km Length=0.001 bus1=st_mat.1.2.3 bus2=p1uts1_69-st_matxx.1.2.3 switch=y enabled=y phases=3 Linecode=breaker_3_3_3_3

New Line.breaker(r:p1uts1_69-st_mat)p1u_265658 Units=km Length=0.001 bus1=p1uts1_69-st_matx.1.2.3 bus2=p1uts1_69.1.2.3 switch=y enabled=y phases=3 Linecode=breaker_3_4_3_3_3

New Line.breaker(r:p1uts2_69-st_mat)p1u_265659 Units=km Length=0.001 bus1=st_mat.1.2.3 bus2=p1uts2_69-st_matxx.1.2.3 switch=y enabled=y phases=3 Linecode=breaker_3_4_3_2_3_3

New Line.breaker(r:p1uts2_69-st_mat)p1u_265660 Units=km Length=0.001 bus1=p1uts2_69-st_matx.1.2.3 bus2=p1uts2_69.1.2.3 switch=y enabled=y phases=3 Linecode=breaker_3_4_3_2_3_3

New Line.breaker(r:p1uts3_69-st_mat)p1u_265661 Units=km Length=0.001 bus1=st_mat.1.2.3 bus2=p1uts3_69-st_matxx.1.2.3 switch=y enabled=y phases=3 Linecode=breaker_3_4_3_2_3_2_3

New Line.breaker(r:p1uts3_69-st_mat)p1u_265662 Units=km Length=0.001 bus1=p1uts3_69-st_matx.1.2.3 bus2=p1uts3_69.1.2.3 switch=y enabled=y phases=3 Linecode=breaker_3_3_3_3

New Line.breaker(r:p1uts4_69-st_mat)p1u_265663 Units=km Length=0.001 bus1=st_mat.1.2.3 bus2=p1uts4_69-st_matxx.1.2.3 switch=y enabled=y phases=3 Linecode=breaker_3_3_3_3

New Line.breaker(r:p1uts4_69-st_mat)p1u_265664 Units=km Length=0.001 bus1=p1uts4_69-st_matx.1.2.3 bus2=p1uts4_69.1.2.3 switch=y enabled=y phases=3 Linecode=breaker_3_4_3_2_3_2_3_2

New Line.breaker(r:p1uhs2_69-p1uts1_69)p1u_265701p1ud3 Units=km Length=0.001 bus1=p1uts1_69.1.2.3 bus2=p1uhs2_69-p1uts1_69xx.1.2.3 switch=y enabled=y phases=3 Linecode=breaker_3_3_3_3

New Line.breaker(r:p1uhs2_69-p1uts1_69)p1u_265702p1ud3 Units=km Length=0.001 bus1=p1uhs2_69-p1uts1_69x.1.2.3 bus2=p1uhs2_69.1.2.3 switch=y enabled=y phases=3 Linecode=breaker_3_3_3_3

New Line.breaker(r:p1uhs2_69-p1uts1_69)p1u_265701p1ud3p1ud3 Units=km Length=0.001 bus1=p1uts1_69.1.2.3 bus2=p1uhs2_69-p1uts1_69x_px_p.1.2.3 switch=y enabled=y phases=3 Linecode=breaker_3_3_3_3

New Line.breaker(r:p1uhs2_69-p1uts1_69)p1u_265702p1ud3p1ud3 Units=km Length=0.001 bus1=p1uhs2_69-p1uts1_69x_p.1.2.3 bus2=p1uhs2_69.1.2.3 switch=y enabled=y phases=3 Linecode=breaker_3_4_3_2_3_2_3

New Line.breaker(r:p1uhs8_69-p1uts1_69)p1u_265703p1ud3p1ud23 Units=km Length=0.001 bus1=p1uts1_69.1.2.3 bus2=p1uhs8_69-p1uts1_69xx.1.2.3 switch=y enabled=y phases=3 Linecode=breaker_3_3_3_3

New Line.breaker(r:p1uhs8_69-p1uts1_69)p1u_265704p1ud3p1ud23 Units=km Length=0.001 bus1=p1uhs8_69-p1uts1_69x.1.2.3 bus2=p1uhs8_69.1.2.3 switch=y enabled=y phases=3 Linecode=breaker_3_4_3_2_3_2_3

New Line.breaker(r:p1uhs8_69-p1uts1_69)p1u_265703p1ud3p1ud23p1ud13 Units=km Length=0.001 bus1=p1uts1_69.1.2.3 bus2=p1uhs8_69-p1uts1_69x_px_p.1.2.3 switch=y enabled=y phases=3 Linecode=breaker_3_3_3_3

New Line.breaker(r:p1uhs8_69-p1uts1_69)p1u_265704p1ud3p1ud23p1ud13 Units=km Length=0.001 bus1=p1uhs8_69-p1uts1_69x_p.1.2.3 bus2=p1uhs8_69.1.2.3 switch=y enabled=y phases=3 Linecode=breaker_3_4_3_2_3_2_3

New Line.breaker(r:p1uhs8_69-p1uts1_69)p1u_265703p1ud3p1ud23p1ud23 Units=km Length=0.001 bus1=p1uts1_69.1.2.3 bus2=p1uhs8_69-p1uts1_69x_px_p.1.2.3 switch=y enabled=y phases=3 Linecode=breaker_3_3_3_3

New Line.breaker(r:p1uhs8_69-p1uts1_69)p1u_265704p1ud3p1ud23p1ud23 Units=km Length=0.001 bus1=p1uhs8_69-p1uts1_69x_p.1.2.3 bus2=p1uhs8_69.1.2.3 switch=y enabled=y phases=3 Linecode=breaker_3_4_3_2_3_2_3_2

New Line.breaker(r:p1uhs8_69-p1uts1_69)p1u_265703p1ud3p1ud23p1ud33 Units=km Length=0.001 bus1=p1uts1_69.1.2.3 bus2=p1uhs8_69-p1uts1_69x_px_p.1.2.3 switch=y enabled=y phases=3 Linecode=breaker_3_3_3_3

New Line.breaker(r:p1uhs8_69-p1uts1_69)p1u_265704p1ud3p1ud23p1ud33 Units=km Length=0.001 bus1=p1uhs8_69-p1uts1_69x_p.1.2.3 bus2=p1uhs8_69.1.2.3 switch=y enabled=y phases=3 Linecode=breaker_3_4_3_2_3_2_3

New Line.breaker(r:p1uhs16_69-p1uts4_69)p1u_265731 Units=km Length=0.001 bus1=p1uts4_69.1.2.3 bus2=p1uhs16_69-p1uts4_69xx.1.2.3 switch=y enabled=y phases=3 Linecode=breaker_3_4_3_2_3_2_3_2

New Line.breaker(r:p1uhs16_69-p1uts4_69)p1u_265732 Units=km Length=0.001 bus1=p1uhs16_69-p1uts4_69x.1.2.3 bus2=p1uhs16_69.1.2.3 switch=y enabled=y phases=3 Linecode=breaker_3_4_3_2_3_2_3_2

New Line.breaker(r:p1uhs13_69-p1uhs18_69)p1u_265733 Units=km Length=0.001 bus1=p1uhs18_69.1.2.3 bus2=p1uhs13_69-p1uhs18_69xx.1.2.3 switch=y enabled=y phases=3 Linecode=breaker_3_3_3_3

New Line.breaker(r:p1uhs13_69-p1uhs18_69)p1u_265734 Units=km Length=0.001 bus1=p1uhs13_69-p1uhs18_69x.1.2.3 bus2=p1uhs13_69.1.2.3 switch=y enabled=y phases=3 Linecode=breaker_3_4_3_2_3_2_3

New Line.breaker(r:p1uhs0_69-p1uhs3_69)p1u_265735 Units=km Length=0.001 bus1=p1uhs3_69.1.2.3 bus2=p1uhs0_69-p1uhs3_69xx.1.2.3 switch=y enabled=y phases=3 Linecode=breaker_3_4_3_2_3_2_3_2

New Line.breaker(r:p1uhs0_69-p1uhs3_69)p1u_265736 Units=km Length=0.001 bus1=p1uhs0_69-p1uhs3_69x.1.2.3 bus2=p1uhs0_69.1.2.3 switch=y enabled=y phases=3 Linecode=breaker_3_4_3_2_3_2_3_2

New Line.breaker(r:p1uhs19_69-p1uhs5_69)p1u_265737 Units=km Length=0.001 bus1=p1uhs5_69.1.2.3 bus2=p1uhs19_69-p1uhs5_69xx.1.2.3 switch=y enabled=y phases=3 Linecode=breaker_3_3_3_3

New Line.breaker(r:p1uhs19_69-p1uhs5_69)p1u_265738 Units=km Length=0.001 bus1=p1uhs19_69-p1uhs5_69x.1.2.3 bus2=p1uhs19_69.1.2.3 switch=y enabled=y phases=3 Linecode=breaker_3_4_3_2_3_2_3_2

New Line.breaker(r:p1uhs13_69-p1uts3_69)p1u_265739 Units=km Length=0.001 bus1=p1uts3_69.1.2.3 bus2=p1uhs13_69-p1uts3_69xx.1.2.3 switch=y enabled=y phases=3 Linecode=breaker_3_3_3_3

New Line.breaker(r:p1uhs13_69-p1uts3_69)p1u_265740 Units=km Length=0.001 bus1=p1uhs13_69-p1uts3_69x.1.2.3 bus2=p1uhs13_69.1.2.3 switch=y enabled=y phases=3 Linecode=breaker_3_4_3_2_3_2_3

New Line.breaker(r:p1uhs23_69-p1uts3_69)p1u_265741 Units=km Length=0.001 bus1=p1uts3_69.1.2.3 bus2=p1uhs23_69-p1uts3_69xx.1.2.3 switch=y enabled=y phases=3 Linecode=breaker_3_4_3_2_3_2_3_2

New Line.breaker(r:p1uhs23_69-p1uts3_69)p1u_265742 Units=km Length=0.001 bus1=p1uhs23_69-p1uts3_69x.1.2.3 bus2=p1uhs23_69.1.2.3 switch=y enabled=y phases=3 Linecode=breaker_3_4_3_2_3_2_3_2

New Line.breaker(r:p1uhs17_69-p1uhs5_69)p1u_265743 Units=km Length=0.001 bus1=p1uhs17_69.1.2.3 bus2=p1uhs17_69-p1uhs5_69x.1.2.3 switch=y enabled=y phases=3 Linecode=breaker_3_4_3_2_3_2_3

New Line.breaker(r:p1uhs17_69-p1uhs5_69)p1u_265744 Units=km Length=0.001 bus1=p1uhs17_69-p1uhs5_69xx.1.2.3 bus2=p1uhs5_69.1.2.3 switch=y enabled=y phases=3 Linecode=breaker_3_4_3_2_3_2_3_2

New Line.breaker(r:p1uhs1_69-p1uts1_69)p1u_265745 Units=km Length=0.001 bus1=p1uts1_69.1.2.3 bus2=p1uhs1_69-p1uts1_69xx.1.2.3 switch=y enabled=y phases=3 Linecode=breaker_3_4_3_2_3_3

New Line.breaker(r:p1uhs1_69-p1uts1_69)p1u_265746 Units=km Length=0.001 bus1=p1uhs1_69-p1uts1_69x.1.2.3 bus2=p1uhs1_69.1.2.3 switch=y enabled=y phases=3 Linecode=breaker_3_4_3_2_3_2_3_2

New Line.breaker(r:p1uhs16_69-p1uhs21_69)p1u_265747 Units=km Length=0.001 bus1=p1uhs16_69.1.2.3 bus2=p1uhs16_69-p1uhs21_69x.1.2.3 switch=y enabled=y phases=3 Linecode=breaker_3_4_3_2_3_2_3_2

New Line.breaker(r:p1uhs16_69-p1uhs21_69)p1u_265748 Units=km Length=0.001 bus1=p1uhs16_69-p1uhs21_69xx.1.2.3 bus2=p1uhs21_69.1.2.3 switch=y enabled=y phases=3 Linecode=breaker_3_3_3_3

New Line.breaker(r:p1uhs11_69-p1uhs15_69)p1u_265749 Units=km Length=0.001 bus1=p1uhs11_69.1.2.3 bus2=p1uhs11_69-p1uhs15_69x.1.2.3 switch=y enabled=y phases=3 Linecode=breaker_3_4_3_2_3_2_3

New Line.breaker(r:p1uhs11_69-p1uhs15_69)p1u_265750 Units=km Length=0.001 bus1=p1uhs11_69-p1uhs15_69xx.1.2.3 bus2=p1uhs15_69.1.2.3 switch=y enabled=y phases=3 Linecode=breaker_3_4_3_2_3_2_3_2

New Line.breaker(r:p1uhs18_69-p1uts4_69)p1u_265751 Units=km Length=0.001 bus1=p1uts4_69.1.2.3 bus2=p1uhs18_69-p1uts4_69xx.1.2.3 switch=y enabled=y phases=3 Linecode=breaker_3_3_3_3

New Line.breaker(r:p1uhs18_69-p1uts4_69)p1u_265752 Units=km Length=0.001 bus1=p1uhs18_69-p1uts4_69x.1.2.3 bus2=p1uhs18_69.1.2.3 switch=y enabled=y phases=3 Linecode=breaker_3_4_3_2_3_2_3_2

New Line.breaker(r:p1uhs22_69-p1uhs9_69)p1u_265753 Units=km Length=0.001 bus1=p1uhs22_69.1.2.3 bus2=p1uhs22_69-p1uhs9_69x.1.2.3 switch=y enabled=y phases=3 Linecode=breaker_3_3_3_3

New Line.breaker(r:p1uhs22_69-p1uhs9_69)p1u_265754 Units=km Length=0.001 bus1=p1uhs22_69-p1uhs9_69xx.1.2.3 bus2=p1uhs9_69.1.2.3 switch=y enabled=y phases=3 Linecode=breaker_3_4_3_2_3_2_3

New Line.breaker(r:p1uhs14_69-p1uhs17_69)p1u_265755 Units=km Length=0.001 bus1=p1uhs14_69.1.2.3 bus2=p1uhs14_69-p1uhs17_69x.1.2.3 switch=y enabled=y phases=3 Linecode=breaker_3_4_3_2_3_2_3_2

New Line.breaker(r:p1uhs14_69-p1uhs17_69)p1u_265756 Units=km Length=0.001 bus1=p1uhs14_69-p1uhs17_69xx.1.2.3 bus2=p1uhs17_69.1.2.3 switch=y enabled=y phases=3 Linecode=breaker_3_4_3_2_3_2_3_2

New Line.breaker(r:p1uhs4_69-p1uts2_69)p1u_265757 Units=km Length=0.001 bus1=p1uts2_69.1.2.3 bus2=p1uhs4_69-p1uts2_69xx.1.2.3 switch=y enabled=y phases=3 Linecode=breaker_3_4_3_2_3_3

New Line.breaker(r:p1uhs4_69-p1uts2_69)p1u_265758 Units=km Length=0.001 bus1=p1uhs4_69-p1uts2_69x.1.2.3 bus2=p1uhs4_69.1.2.3 switch=y enabled=y phases=3 Linecode=breaker_3_4_3_2_3_2_3_2

New Line.breaker(r:p1uhs20_69-p1uhs8_69)p1u_265759 Units=km Length=0.001 bus1=p1uhs8_69.1.2.3 bus2=p1uhs20_69-p1uhs8_69xx.1.2.3 switch=y enabled=y phases=3 Linecode=breaker_3_4_3_2_3_2_3

New Line.breaker(r:p1uhs20_69-p1uhs8_69)p1u_265760 Units=km Length=0.001 bus1=p1uhs20_69-p1uhs8_69x.1.2.3 bus2=p1uhs20_69.1.2.3 switch=y enabled=y phases=3 Linecode=breaker_3_3_3_3

New Line.breaker(r:p1uhs0_69-p1uhs6_69)p1u_265761 Units=km Length=0.001 bus1=p1uhs0_69.1.2.3 bus2=p1uhs0_69-p1uhs6_69x.1.2.3 switch=y enabled=y phases=3 Linecode=breaker_3_4_3_2_3_2_3_2

New Line.breaker(r:p1uhs0_69-p1uhs6_69)p1u_265762 Units=km Length=0.001 bus1=p1uhs0_69-p1uhs6_69xx.1.2.3 bus2=p1uhs6_69.1.2.3 switch=y enabled=y phases=3 Linecode=breaker_3_4_3_3_3

New Line.breaker(r:p1uhs2_69-p1uhs6_69)p1u_265763 Units=km Length=0.001 bus1=p1uhs2_69.1.2.3 bus2=p1uhs2_69-p1uhs6_69x.1.2.3 switch=y enabled=y phases=3 Linecode=breaker_3_3_3_3

New Line.breaker(r:p1uhs2_69-p1uhs6_69)p1u_265764 Units=km Length=0.001 bus1=p1uhs2_69-p1uhs6_69xx.1.2.3 bus2=p1uhs6_69.1.2.3 switch=y enabled=y phases=3 Linecode=breaker_3_4_3_3_3

New Line.breaker(r:p1uhs24_69-p1uts3_69)p1u_265765 Units=km Length=0.001 bus1=p1uts3_69.1.2.3 bus2=p1uhs24_69-p1uts3_69xx.1.2.3 switch=y enabled=y phases=3 Linecode=breaker_3_3_3_3

New Line.breaker(r:p1uhs24_69-p1uts3_69)p1u_265766 Units=km Length=0.001 bus1=p1uhs24_69-p1uts3_69x.1.2.3 bus2=p1uhs24_69.1.2.3 switch=y enabled=y phases=3 Linecode=breaker_3_4_3_2_3_2_3

New Line.breaker(r:p1uhs15_69-p1uts2_69)p1u_265767 Units=km Length=0.001 bus1=p1uts2_69.1.2.3 bus2=p1uhs15_69-p1uts2_69xx.1.2.3 switch=y enabled=y phases=3 Linecode=breaker_3_4_3_2_3_2_3_2

New Line.breaker(r:p1uhs15_69-p1uts2_69)p1u_265768 Units=km Length=0.001 bus1=p1uhs15_69-p1uts2_69x.1.2.3 bus2=p1uhs15_69.1.2.3 switch=y enabled=y phases=3 Linecode=breaker_3_4_3_2_3_2_3_2

New Line.breaker(r:p1uhs5_69-p1uts0_69)p1u_265769 Units=km Length=0.001 bus1=p1uts0_69.1.2.3 bus2=p1uhs5_69-p1uts0_69xx.1.2.3 switch=y enabled=y phases=3 Linecode=breaker_3_3_3_3

New Line.breaker(r:p1uhs5_69-p1uts0_69)p1u_265770 Units=km Length=0.001 bus1=p1uhs5_69-p1uts0_69x.1.2.3 bus2=p1uhs5_69.1.2.3 switch=y enabled=y phases=3 Linecode=breaker_3_4_3_2_3_2_3_2

New Line.breaker(r:p1uhs10_69-p1uts0_69)p1u_265771 Units=km Length=0.001 bus1=p1uts0_69.1.2.3 bus2=p1uhs10_69-p1uts0_69xx.1.2.3 switch=y enabled=y phases=3 Linecode=breaker_3_3_3_3

New Line.breaker(r:p1uhs10_69-p1uts0_69)p1u_265772 Units=km Length=0.001 bus1=p1uhs10_69-p1uts0_69x.1.2.3 bus2=p1uhs10_69.1.2.3 switch=y enabled=y phases=3 Linecode=breaker_3_4_3_2_3_2_3

New Line.breaker(r:p1uhs11_69-p1uhs4_69)p1u_265773 Units=km Length=0.001 bus1=p1uhs4_69.1.2.3 bus2=p1uhs11_69-p1uhs4_69xx.1.2.3 switch=y enabled=y phases=3 Linecode=breaker_3_4_3_2_3_2_3_2

New Line.breaker(r:p1uhs11_69-p1uhs4_69)p1u_265774 Units=km Length=0.001 bus1=p1uhs11_69-p1uhs4_69x.1.2.3 bus2=p1uhs11_69.1.2.3 switch=y enabled=y phases=3 Linecode=breaker_3_4_3_2_3_2_3

New Line.breaker(r:p1uhs14_69-p1uts0_69)p1u_265775 Units=km Length=0.001 bus1=p1uts0_69.1.2.3 bus2=p1uhs14_69-p1uts0_69xx.1.2.3 switch=y enabled=y phases=3 Linecode=breaker_3_3_3_3

New Line.breaker(r:p1uhs14_69-p1uts0_69)p1u_265776 Units=km Length=0.001 bus1=p1uhs14_69-p1uts0_69x.1.2.3 bus2=p1uhs14_69.1.2.3 switch=y enabled=y phases=3 Linecode=breaker_3_4_3_2_3_2_3_2

New Line.breaker(r:p1uhs3_69-p1uts0_69)p1u_265777 Units=km Length=0.001 bus1=p1uts0_69.1.2.3 bus2=p1uhs3_69-p1uts0_69xx.1.2.3 switch=y enabled=y phases=3 Linecode=breaker_3_4_3_2_3_3

New Line.breaker(r:p1uhs3_69-p1uts0_69)p1u_265778 Units=km Length=0.001 bus1=p1uhs3_69-p1uts0_69x.1.2.3 bus2=p1uhs3_69.1.2.3 switch=y enabled=y phases=3 Linecode=breaker_3_4_3_2_3_2_3_2

New Line.breaker(r:p1uhs9_69-p1uts3_69)p1u_265779 Units=km Length=0.001 bus1=p1uts3_69.1.2.3 bus2=p1uhs9_69-p1uts3_69xx.1.2.3 switch=y enabled=y phases=3 Linecode=breaker_3_4_3_2_3_2_3

New Line.breaker(r:p1uhs9_69-p1uts3_69)p1u_265780 Units=km Length=0.001 bus1=p1uhs9_69-p1uts3_69x.1.2.3 bus2=p1uhs9_69.1.2.3 switch=y enabled=y phases=3 Linecode=breaker_3_4_3_2_3_2_3

New Line.breaker(r:p1uhs12_69-p1uts4_69)p1u_265781 Units=km Length=0.001 bus1=p1uts4_69.1.2.3 bus2=p1uhs12_69-p1uts4_69xx.1.2.3 switch=y enabled=y phases=3 Linecode=breaker_3_3_3_3

New Line.breaker(r:p1uhs12_69-p1uts4_69)p1u_265782 Units=km Length=0.001 bus1=p1uhs12_69-p1uts4_69x.1.2.3 bus2=p1uhs12_69.1.2.3 switch=y enabled=y phases=3 Linecode=breaker_3_4_3_2_3_2_3_2

New Line.breaker(r:p1uhs22_69-p1uhs7_69)p1u_265783 Units=km Length=0.001 bus1=p1uhs7_69.1.2.3 bus2=p1uhs22_69-p1uhs7_69xx.1.2.3 switch=y enabled=y phases=3 Linecode=breaker_3_4_3_2_3_3

New Line.breaker(r:p1uhs22_69-p1uhs7_69)p1u_265784 Units=km Length=0.001 bus1=p1uhs22_69-p1uhs7_69x.1.2.3 bus2=p1uhs22_69.1.2.3 switch=y enabled=y phases=3 Linecode=breaker_3_4_3_2_3_2_3

New Line.breaker(r:p1uhs7_69-p1uts2_69)p1u_265785 Units=km Length=0.001 bus1=p1uts2_69.1.2.3 bus2=p1uhs7_69-p1uts2_69xx.1.2.3 switch=y enabled=y phases=3 Linecode=breaker_3_4_3_2_3_3

New Line.breaker(r:p1uhs7_69-p1uts2_69)p1u_265786 Units=km Length=0.001 bus1=p1uhs7_69-p1uts2_69x.1.2.3 bus2=p1uhs7_69.1.2.3 switch=y enabled=y phases=3 Linecode=breaker_3_4_3_2_3_2_3_2

