New Line.l(r:p2udt69lv-p2ulv792) Units=km Length=0.018487900000000005 bus1=p2udt69lv.1.2 bus2=p2ulv792.1.2 switch=n enabled=y phases=2 Linecode=1P_OH_AL_2/0_Rucina_0_416_0_2_2_2_2

New Line.l(r:p2udt69lv-p2ulv6850) Units=km Length=0.020278100000000004 bus1=p2udt69lv.1.2 bus2=p2ulv6850.1.2 switch=n enabled=y phases=2 Linecode=1P_OH_AL_2/0_Rucina_0_416_0_2_2_2_2

New Line.l(r:p2udm264-p2ulv70) Units=km Length=0.0204332 bus1=p2udm264.1.2 bus2=p2ulv70.1.2 switch=n enabled=y phases=2 Linecode=1P_OH_AL_2/0_Rucina_0_416_0_2_2_2_2

New Line.l(r:p2udm264-p2udt69lv) Units=km Length=0.0173051 bus1=p2udt69lv.1.2 bus2=p2udm264.1.2 switch=n enabled=y phases=2 Linecode=1P_OH_AL_2/0_Rucina_0_416_0_2_2_2_2

New Line.l(r:p2udm267-p2ulv15726) Units=km Length=0.0158192 bus1=p2udm267.1.2 bus2=p2ulv15726.1.2 switch=n enabled=y phases=2 Linecode=1P_OH_AL_2/0_Rucina_0_416_0_2_2_2_2

New Line.l(r:p2udm267-p2udt69lv) Units=km Length=0.0702431 bus1=p2udt69lv.1.2 bus2=p2udm267.1.2 switch=n enabled=y phases=2 Linecode=1P_OH_AL_4/0_Zuzara_0_416_0_2_2_2_2

New Line.l(r:p2udm268-p2ulv71) Units=km Length=0.0189267 bus1=p2udm268.1.2 bus2=p2ulv71.1.2 switch=n enabled=y phases=2 Linecode=1P_UG_AL_1/0_Brenau_0_416_0_2_2_2_2

New Line.l(r:p2udm268-p2udt70lv) Units=km Length=0.00750702 bus1=p2udt70lv.1.2 bus2=p2udm268.1.2 switch=n enabled=y phases=2 Linecode=1P_UG_AL_1/0_Brenau_0_416_0_2_2_2_2

New Line.l(r:p2udm269-p2ulv5893) Units=km Length=0.0121753 bus1=p2udm269.1.2 bus2=p2ulv5893.1.2 switch=n enabled=y phases=2 Linecode=1P_UG_AL_1/0_Brenau_0_416_0_2_2_2_2

New Line.l(r:p2udm269-p2udt70lv) Units=km Length=0.0293877 bus1=p2udt70lv.1.2 bus2=p2udm269.1.2 switch=n enabled=y phases=2 Linecode=1P_UG_AL_1/0_Brenau_0_416_0_2_2_2_2

New Line.l(r:p2udt71lv-p2ulv72) Units=km Length=0.001 bus1=p2udt71lv.1.2 bus2=p2ulv72.1.2 switch=n enabled=y phases=2 Linecode=1P_OH_AL_4_Periwinkle_0_416_0_2_2_2_2

New Line.l(r:p2udt331lv-p2ulv3244) Units=km Length=0.0159217 bus1=p2udt331lv.1.2 bus2=p2ulv3244.1.2 switch=n enabled=y phases=2 Linecode=1P_UG_AL_1/0_Brenau_0_416_0_2_2_2_2

New Line.l(r:p2udm1207-p2ulv4934) Units=km Length=0.0150915 bus1=p2udm1207.1.2 bus2=p2ulv4934.1.2 switch=n enabled=y phases=2 Linecode=1P_UG_AL_1/0_Brenau_0_416_0_2_2_2_2

New Line.l(r:p2udm1207-p2ulv18906) Units=km Length=0.0155909 bus1=p2udm1207.1.2 bus2=p2ulv18906.1.2 switch=n enabled=y phases=2 Linecode=1P_UG_AL_1/0_Brenau_0_416_0_2_2_2_2

New Line.l(r:p2udm1205-p2ulv2763) Units=km Length=0.0167739 bus1=p2udm1205.1.2 bus2=p2ulv2763.1.2 switch=n enabled=y phases=2 Linecode=1P_UG_AL_1/0_Brenau_0_416_0_2_2_2_2

New Line.l(r:p2udm1205-p2udm1207) Units=km Length=0.01872 bus1=p2udm1207.1.2 bus2=p2udm1205.1.2 switch=n enabled=y phases=2 Linecode=1P_UG_AL_1/0_Brenau_0_416_0_2_2_2_2

New Line.l(r:p2udm1207-p2udt331lv) Units=km Length=0.0195461 bus1=p2udt331lv.1.2 bus2=p2udm1207.1.2 switch=n enabled=y phases=2 Linecode=1P_UG_AL_4/0_Sweetbriar_0_416_0_2_2_2_2

New Line.l(r:p2udm1209-p2ulv9443) Units=km Length=0.0171244 bus1=p2udm1209.1.2 bus2=p2ulv9443.1.2 switch=n enabled=y phases=2 Linecode=1P_UG_AL_1/0_Brenau_0_416_0_2_2_2_2

New Line.l(r:p2udm1204-p2ulv340) Units=km Length=0.0152489 bus1=p2udm1204.1.2 bus2=p2ulv340.1.2 switch=n enabled=y phases=2 Linecode=1P_UG_AL_1/0_Brenau_0_416_0_2_2_2_2

New Line.l(r:p2udm1204-p2ulv4935) Units=km Length=0.014870300000000001 bus1=p2udm1204.1.2 bus2=p2ulv4935.1.2 switch=n enabled=y phases=2 Linecode=1P_UG_AL_1/0_Brenau_0_416_0_2_2_2_2

New Line.l(r:p2udm1204-p2udm1209) Units=km Length=0.0097732 bus1=p2udm1209.1.2 bus2=p2udm1204.1.2 switch=n enabled=y phases=2 Linecode=1P_UG_AL_2/0_Converse_0_416_0_2_2_2_2

New Line.l(r:p2udm1209-p2udt331lv) Units=km Length=0.009772950000000002 bus1=p2udt331lv.1.2 bus2=p2udm1209.1.2 switch=n enabled=y phases=2 Linecode=1P_UG_AL_4/0_Sweetbriar_0_416_0_2_2_2_2

New Line.l(r:p2udm1211-p2ulv341) Units=km Length=0.0222289 bus1=p2udm1211.1.2 bus2=p2ulv341.1.2 switch=n enabled=y phases=2 Linecode=1P_UG_AL_1/0_Brenau_0_416_0_2_2_2_2

New Line.l(r:p2udm1211-p2ulv13916) Units=km Length=0.019893500000000005 bus1=p2udm1211.1.2 bus2=p2ulv13916.1.2 switch=n enabled=y phases=2 Linecode=1P_UG_AL_1/0_Brenau_0_416_0_2_2_2_2

New Line.l(r:p2udm1211-p2ulv16217) Units=km Length=0.0185918 bus1=p2udm1211.1.2 bus2=p2ulv16217.1.2 switch=n enabled=y phases=2 Linecode=1P_UG_AL_1/0_Brenau_0_416_0_2_2_2_2

New Line.l(r:p2udm1211-p2udt332lv) Units=km Length=0.0187772 bus1=p2udt332lv.1.2 bus2=p2udm1211.1.2 switch=n enabled=y phases=2 Linecode=1P_UG_AL_4/0_Sweetbriar_0_416_0_2_2_2_2

New Line.l(r:p2udm1212-p2ulv3246) Units=km Length=0.0141102 bus1=p2udm1212.1.2 bus2=p2ulv3246.1.2 switch=n enabled=y phases=2 Linecode=1P_UG_AL_1/0_Brenau_0_416_0_2_2_2_2

New Line.l(r:p2udm1212-p2ulv18908) Units=km Length=0.0151504 bus1=p2udm1212.1.2 bus2=p2ulv18908.1.2 switch=n enabled=y phases=2 Linecode=1P_UG_AL_1/0_Brenau_0_416_0_2_2_2_2

New Line.l(r:p2udm1212-p2udt332lv) Units=km Length=0.0620203 bus1=p2udt332lv.1.2 bus2=p2udm1212.1.2 switch=n enabled=y phases=2 Linecode=1P_UG_AL_1/0_Brenau_0_416_0_2_2_2_2

New Line.l(r:p2udt335lv-p2ulv344) Units=km Length=0.0165809 bus1=p2udt335lv.1.2 bus2=p2ulv344.1.2 switch=n enabled=y phases=2 Linecode=1P_UG_AL_1/0_Brenau_0_416_0_2_2_2_2

New Line.l(r:p2udt335lv-p2ulv10380) Units=km Length=0.0314714 bus1=p2udt335lv.1.2 bus2=p2ulv10380.1.2 switch=n enabled=y phases=2 Linecode=1P_UG_AL_1/0_Brenau_0_416_0_2_2_2_2

New Line.l(r:p2udm1227-p2ulv11818) Units=km Length=0.013120300000000001 bus1=p2udm1227.1.2 bus2=p2ulv11818.1.2 switch=n enabled=y phases=2 Linecode=1P_UG_AL_1/0_Brenau_0_416_0_2_2_2_2

New Line.l(r:p2udm1225-p2ulv9218) Units=km Length=0.020296100000000004 bus1=p2udm1225.1.2 bus2=p2ulv9218.1.2 switch=n enabled=y phases=2 Linecode=1P_UG_AL_1/0_Brenau_0_416_0_2_2_2_2

New Line.l(r:p2udm1225-p2udm1227) Units=km Length=0.00902877 bus1=p2udm1227.1.2 bus2=p2udm1225.1.2 switch=n enabled=y phases=2 Linecode=1P_UG_AL_1/0_Brenau_0_416_0_2_2_2_2

New Line.l(r:p2udm1227-p2udt335lv) Units=km Length=0.009016430000000002 bus1=p2udt335lv.1.2 bus2=p2udm1227.1.2 switch=n enabled=y phases=2 Linecode=1P_UG_AL_4/0_Sweetbriar_0_416_0_2_2_2_2

New Line.l(r:p2udm1228-p2ulv17380) Units=km Length=0.014609300000000002 bus1=p2udm1228.1.2 bus2=p2ulv17380.1.2 switch=n enabled=y phases=2 Linecode=1P_UG_AL_1/0_Brenau_0_416_0_2_2_2_2

New Line.l(r:p2udm1228-p2udt335lv) Units=km Length=0.00902877 bus1=p2udt335lv.1.2 bus2=p2udm1228.1.2 switch=n enabled=y phases=2 Linecode=1P_UG_AL_1/0_Brenau_0_416_0_2_2_2_2

New Line.l(r:p2udt336lv-p2ulv345) Units=km Length=0.016065900000000004 bus1=p2udt336lv.1.2 bus2=p2ulv345.1.2 switch=n enabled=y phases=2 Linecode=1P_UG_AL_1/0_Brenau_0_416_0_2_2_2_2

New Line.l(r:p2udt336lv-p2ulv21637) Units=km Length=0.016394600000000002 bus1=p2udt336lv.1.2 bus2=p2ulv21637.1.2 switch=n enabled=y phases=2 Linecode=1P_UG_AL_1/0_Brenau_0_416_0_2_2_2_2

New Line.l(r:p2udm1962-p2ulv9655) Units=km Length=0.017017 bus1=p2udm1962.1.2 bus2=p2ulv9655.1.2 switch=n enabled=y phases=2 Linecode=1P_UG_AL_1/0_Brenau_0_416_0_2_2_2_2

New Line.l(r:p2udm1962-p2ulv13234) Units=km Length=0.0181605 bus1=p2udm1962.1.2 bus2=p2ulv13234.1.2 switch=n enabled=y phases=2 Linecode=1P_UG_AL_1/0_Brenau_0_416_0_2_2_2_2

New Line.l(r:p2udm1962-p2udt533lv) Units=km Length=0.0484755 bus1=p2udt533lv.1.2 bus2=p2udm1962.1.2 switch=n enabled=y phases=2 Linecode=1P_UG_AL_1/0_Brenau_0_416_0_2_2_2_2

New Line.l(r:p2udm1966-p2ulv23006) Units=km Length=0.016866300000000004 bus1=p2udm1966.1.2 bus2=p2ulv23006.1.2 switch=n enabled=y phases=2 Linecode=1P_UG_AL_1/0_Brenau_0_416_0_2_2_2_2

New Line.l(r:p2udm1960-p2ulv563) Units=km Length=0.0151619 bus1=p2udm1960.1.2 bus2=p2ulv563.1.2 switch=n enabled=y phases=2 Linecode=1P_UG_AL_1/0_Brenau_0_416_0_2_2_2_2

New Line.l(r:p2udm1960-p2ulv20514) Units=km Length=0.0148075 bus1=p2udm1960.1.2 bus2=p2ulv20514.1.2 switch=n enabled=y phases=2 Linecode=1P_UG_AL_1/0_Brenau_0_416_0_2_2_2_2

New Line.l(r:p2udm1961-p2ulv7835) Units=km Length=0.0157622 bus1=p2udm1961.1.2 bus2=p2ulv7835.1.2 switch=n enabled=y phases=2 Linecode=1P_UG_AL_4/0_Sweetbriar_0_416_0_2_2_2_2

New Line.l(r:p2udm1961-p2ulv11579) Units=km Length=0.0183921 bus1=p2udm1961.1.2 bus2=p2ulv11579.1.2 switch=n enabled=y phases=2 Linecode=1P_UG_AL_1/0_Brenau_0_416_0_2_2_2_2

New Line.l(r:p2udm1960-p2udm1961) Units=km Length=0.022617 bus1=p2udm1960.1.2 bus2=p2udm1961.1.2 switch=n enabled=y phases=2 Linecode=1P_UG_AL_4/0_Sweetbriar_0_416_0_2_2_2_2

New Line.l(r:p2udm1960-p2udm1966) Units=km Length=0.00694496 bus1=p2udm1966.1.2 bus2=p2udm1960.1.2 switch=n enabled=y phases=2 Linecode=1P_UG_AL_4/0_Sweetbriar_0_416_0_2_2_2_2

New Line.l(r:p2udm1966-p2udt533lv) Units=km Length=0.00695731 bus1=p2udt533lv.1.2 bus2=p2udm1966.1.2 switch=n enabled=y phases=2 Linecode=1P_UG_AL_4/0_Sweetbriar_0_416_0_2_2_2_2

New Line.l(r:p2udt535lv-p2ulv22086) Units=km Length=0.0151285 bus1=p2udt535lv.1.2 bus2=p2ulv22086.1.2 switch=n enabled=y phases=2 Linecode=1P_UG_AL_1/0_Brenau_0_416_0_2_2_2_2

New Line.l(r:p2udm1971-p2ulv15496) Units=km Length=0.0154126 bus1=p2udm1971.1.2 bus2=p2ulv15496.1.2 switch=n enabled=y phases=2 Linecode=1P_UG_AL_1/0_Brenau_0_416_0_2_2_2_2

New Line.l(r:p2udm1972-p2ulv16430) Units=km Length=0.0152537 bus1=p2udm1972.1.2 bus2=p2ulv16430.1.2 switch=n enabled=y phases=2 Linecode=1P_UG_AL_1/0_Brenau_0_416_0_2_2_2_2

New Line.l(r:p2udm1971-p2udm1972) Units=km Length=0.00986444 bus1=p2udm1971.1.2 bus2=p2udm1972.1.2 switch=n enabled=y phases=2 Linecode=1P_UG_AL_1/0_Brenau_0_416_0_2_2_2_2

New Line.l(r:p2udm1971-p2udt535lv) Units=km Length=0.009869270000000001 bus1=p2udt535lv.1.2 bus2=p2udm1971.1.2 switch=n enabled=y phases=2 Linecode=1P_UG_AL_4/0_Sweetbriar_0_416_0_2_2_2_2

New Line.l(r:p2udm1973-p2ulv20933) Units=km Length=0.0152725 bus1=p2udm1973.1.2 bus2=p2ulv20933.1.2 switch=n enabled=y phases=2 Linecode=1P_UG_AL_1/0_Brenau_0_416_0_2_2_2_2

New Line.l(r:p2udm1969-p2ulv565) Units=km Length=0.014647700000000001 bus1=p2udm1969.1.2 bus2=p2ulv565.1.2 switch=n enabled=y phases=2 Linecode=1P_UG_AL_1/0_Brenau_0_416_0_2_2_2_2

New Line.l(r:p2udm1969-p2ulv566) Units=km Length=0.016205 bus1=p2udm1969.1.2 bus2=p2ulv566.1.2 switch=n enabled=y phases=2 Linecode=1P_UG_AL_1/0_Brenau_0_416_0_2_2_2_2

New Line.l(r:p2udm1969-p2udm1973) Units=km Length=0.009869270000000001 bus1=p2udm1973.1.2 bus2=p2udm1969.1.2 switch=n enabled=y phases=2 Linecode=1P_UG_AL_4/0_Sweetbriar_0_416_0_2_2_2_2

New Line.l(r:p2udm1973-p2udt535lv) Units=km Length=0.00986444 bus1=p2udt535lv.1.2 bus2=p2udm1973.1.2 switch=n enabled=y phases=2 Linecode=1P_UG_AL_4/0_Sweetbriar_0_416_0_2_2_2_2

New Line.l(r:p2udt536lv-p2ulv10623) Units=km Length=0.01785 bus1=p2udt536lv.1.2 bus2=p2ulv10623.1.2 switch=n enabled=y phases=2 Linecode=1P_UG_AL_1/0_Brenau_0_416_0_2_2_2_2

New Line.l(r:p2udm1976-p2ulv1289) Units=km Length=0.036155 bus1=p2udm1976.1.2 bus2=p2ulv1289.1.2 switch=n enabled=y phases=2 Linecode=1P_UG_AL_1/0_Brenau_0_416_0_2_2_2_2

New Line.l(r:p2udm1976-p2ulv12764) Units=km Length=0.0179317 bus1=p2udm1976.1.2 bus2=p2ulv12764.1.2 switch=n enabled=y phases=2 Linecode=1P_UG_AL_1/0_Brenau_0_416_0_2_2_2_2

New Line.l(r:p2udm1980-p2ulv17129) Units=km Length=0.0173028 bus1=p2udm1980.1.2 bus2=p2ulv17129.1.2 switch=n enabled=y phases=2 Linecode=1P_UG_AL_1/0_Brenau_0_416_0_2_2_2_2

New Line.l(r:p2udm1976-p2udm1980) Units=km Length=0.04891220000000001 bus1=p2udm1976.1.2 bus2=p2udm1980.1.2 switch=n enabled=y phases=2 Linecode=1P_UG_AL_1/0_Brenau_0_416_0_2_2_2_2

New Line.l(r:p2udm1976-p2udt536lv) Units=km Length=0.00846898 bus1=p2udt536lv.1.2 bus2=p2udm1976.1.2 switch=n enabled=y phases=2 Linecode=1P_UG_AL_4/0_Sweetbriar_0_416_0_2_2_2_2

New Line.l(r:p2udm1977-p2ulv7840) Units=km Length=0.0185739 bus1=p2udm1977.1.2 bus2=p2ulv7840.1.2 switch=n enabled=y phases=2 Linecode=1P_UG_AL_1/0_Brenau_0_416_0_2_2_2_2

New Line.l(r:p2udm1981-p2ulv21850) Units=km Length=0.017726 bus1=p2udm1981.1.2 bus2=p2ulv21850.1.2 switch=n enabled=y phases=2 Linecode=1P_UG_AL_1/0_Brenau_0_416_0_2_2_2_2

New Line.l(r:p2udm1975-p2ulv567) Units=km Length=0.0177816 bus1=p2udm1975.1.2 bus2=p2ulv567.1.2 switch=n enabled=y phases=2 Linecode=1P_UG_AL_1/0_Brenau_0_416_0_2_2_2_2

New Line.l(r:p2udm1975-p2udm1981) Units=km Length=0.00907139 bus1=p2udm1981.1.2 bus2=p2udm1975.1.2 switch=n enabled=y phases=2 Linecode=1P_UG_AL_1/0_Brenau_0_416_0_2_2_2_2

New Line.l(r:p2udm1977-p2udm1981) Units=km Length=0.00754889 bus1=p2udm1977.1.2 bus2=p2udm1981.1.2 switch=n enabled=y phases=2 Linecode=1P_UG_AL_2/0_Converse_0_416_0_2_2_2_2

New Line.l(r:p2udm1977-p2udt536lv) Units=km Length=0.00754889 bus1=p2udt536lv.1.2 bus2=p2udm1977.1.2 switch=n enabled=y phases=2 Linecode=1P_UG_AL_4/0_Sweetbriar_0_416_0_2_2_2_2

New Line.l(r:p2udt537lv-p2ulv568) Units=km Length=0.017919 bus1=p2udt537lv.1.2 bus2=p2ulv568.1.2 switch=n enabled=y phases=2 Linecode=1P_UG_AL_1/0_Brenau_0_416_0_2_2_2_2

New Line.l(r:p2udt537lv-p2ulv4451) Units=km Length=0.0187144 bus1=p2udt537lv.1.2 bus2=p2ulv4451.1.2 switch=n enabled=y phases=2 Linecode=1P_UG_AL_1/0_Brenau_0_416_0_2_2_2_2

New Line.l(r:p2udm1984-p2ulv6398) Units=km Length=0.0187983 bus1=p2udm1984.1.2 bus2=p2ulv6398.1.2 switch=n enabled=y phases=2 Linecode=1P_UG_AL_1/0_Brenau_0_416_0_2_2_2_2

New Line.l(r:p2udm1984-p2udt537lv) Units=km Length=0.0141216 bus1=p2udt537lv.1.2 bus2=p2udm1984.1.2 switch=n enabled=y phases=2 Linecode=1P_UG_AL_1/0_Brenau_0_416_0_2_2_2_2

New Line.l(r:p2udm1985-p2ulv17373) Units=km Length=0.0176393 bus1=p2udm1985.1.2 bus2=p2ulv17373.1.2 switch=n enabled=y phases=2 Linecode=1P_UG_AL_1/0_Brenau_0_416_0_2_2_2_2

New Line.l(r:p2udm1985-p2udt537lv) Units=km Length=0.005967590000000001 bus1=p2udt537lv.1.2 bus2=p2udm1985.1.2 switch=n enabled=y phases=2 Linecode=1P_UG_AL_1/0_Brenau_0_416_0_2_2_2_2

New Line.l(r:p2udm1987-p2ulv4203) Units=km Length=0.0178837 bus1=p2udm1987.1.2 bus2=p2ulv4203.1.2 switch=n enabled=y phases=2 Linecode=1P_UG_AL_1/0_Brenau_0_416_0_2_2_2_2

New Line.l(r:p2udm1987-p2ulv13917) Units=km Length=0.0188112 bus1=p2udm1987.1.2 bus2=p2ulv13917.1.2 switch=n enabled=y phases=2 Linecode=1P_UG_AL_1/0_Brenau_0_416_0_2_2_2_2

New Line.l(r:p2udm1986-p2ulv569) Units=km Length=0.0195147 bus1=p2udm1986.1.2 bus2=p2ulv569.1.2 switch=n enabled=y phases=2 Linecode=1P_UG_AL_1/0_Brenau_0_416_0_2_2_2_2

New Line.l(r:p2udm1986-p2udm1987) Units=km Length=0.00953784 bus1=p2udm1987.1.2 bus2=p2udm1986.1.2 switch=n enabled=y phases=2 Linecode=1P_UG_AL_1/0_Brenau_0_416_0_2_2_2_2

New Line.l(r:p2udm1987-p2udt538lv) Units=km Length=0.00906228 bus1=p2udt538lv.1.2 bus2=p2udm1987.1.2 switch=n enabled=y phases=2 Linecode=1P_UG_AL_4/0_Sweetbriar_0_416_0_2_2_2_2

New Line.l(r:p2udm1988-p2ulv9212) Units=km Length=0.0192549 bus1=p2udm1988.1.2 bus2=p2ulv9212.1.2 switch=n enabled=y phases=2 Linecode=1P_UG_AL_1/0_Brenau_0_416_0_2_2_2_2

New Line.l(r:p2udm1988-p2ulv10625) Units=km Length=0.0191769 bus1=p2udm1988.1.2 bus2=p2ulv10625.1.2 switch=n enabled=y phases=2 Linecode=1P_UG_AL_1/0_Brenau_0_416_0_2_2_2_2

New Line.l(r:p2udm1988-p2ulv23629) Units=km Length=0.017697 bus1=p2udm1988.1.2 bus2=p2ulv23629.1.2 switch=n enabled=y phases=2 Linecode=1P_UG_AL_1/0_Brenau_0_416_0_2_2_2_2

New Line.l(r:p2udm1988-p2udt538lv) Units=km Length=0.0181428 bus1=p2udt538lv.1.2 bus2=p2udm1988.1.2 switch=n enabled=y phases=2 Linecode=1P_UG_AL_4/0_Sweetbriar_0_416_0_2_2_2_2

New Line.l(r:p2udt543lv-p2ulv574) Units=km Length=0.0187155 bus1=p2udt543lv.1.2 bus2=p2ulv574.1.2 switch=n enabled=y phases=2 Linecode=1P_OH_AL_2/0_Rucina_0_416_0_2_2_2_2

New Line.l(r:p2udt543lv-p2ulv20288) Units=km Length=0.019252 bus1=p2udt543lv.1.2 bus2=p2ulv20288.1.2 switch=n enabled=y phases=2 Linecode=1P_OH_AL_2/0_Rucina_0_416_0_2_2_2_2

New Line.l(r:p2udm2015-p2ulv7106) Units=km Length=0.0189231 bus1=p2udm2015.1.2 bus2=p2ulv7106.1.2 switch=n enabled=y phases=2 Linecode=1P_OH_AL_2/0_Rucina_0_416_0_2_2_2_2

New Line.l(r:p2udm2015-p2ulv18260) Units=km Length=0.0196379 bus1=p2udm2015.1.2 bus2=p2ulv18260.1.2 switch=n enabled=y phases=2 Linecode=1P_OH_AL_2/0_Rucina_0_416_0_2_2_2_2

New Line.l(r:p2udm2015-p2udt543lv) Units=km Length=0.0197303 bus1=p2udt543lv.1.2 bus2=p2udm2015.1.2 switch=n enabled=y phases=2 Linecode=1P_OH_AL_2/0_Rucina_0_416_0_2_2_2_2

New Line.l(r:p2udm2018-p2ulv21855) Units=km Length=0.0179986 bus1=p2udm2018.1.2 bus2=p2ulv21855.1.2 switch=n enabled=y phases=2 Linecode=1P_OH_AL_2/0_Rucina_0_416_0_2_2_2_2

New Line.l(r:p2udm2018-p2udt543lv) Units=km Length=0.0195464 bus1=p2udt543lv.1.2 bus2=p2udm2018.1.2 switch=n enabled=y phases=2 Linecode=1P_OH_AL_2/0_Rucina_0_416_0_2_2_2_2

New Line.l(r:p2udt738lv-p2ulv787) Units=km Length=0.0189674 bus1=p2udt738lv.1.2 bus2=p2ulv787.1.2 switch=n enabled=y phases=2 Linecode=1P_UG_AL_1/0_Brenau_0_416_0_2_2_2_2

New Line.l(r:p2udt738lv-p2ulv11118) Units=km Length=0.0185261 bus1=p2udt738lv.1.2 bus2=p2ulv11118.1.2 switch=n enabled=y phases=2 Linecode=1P_UG_AL_1/0_Brenau_0_416_0_2_2_2_2

New Line.l(r:p2udm2722-p2ulv4197) Units=km Length=0.020116100000000005 bus1=p2udm2722.1.2 bus2=p2ulv4197.1.2 switch=n enabled=y phases=2 Linecode=1P_UG_AL_1/0_Brenau_0_416_0_2_2_2_2

New Line.l(r:p2udm2725-p2ulv18687) Units=km Length=0.0175806 bus1=p2udm2725.1.2 bus2=p2ulv18687.1.2 switch=n enabled=y phases=2 Linecode=1P_UG_AL_1/0_Brenau_0_416_0_2_2_2_2

New Line.l(r:p2udm2722-p2udm2725) Units=km Length=0.00708243 bus1=p2udm2722.1.2 bus2=p2udm2725.1.2 switch=n enabled=y phases=2 Linecode=1P_UG_AL_1/0_Brenau_0_416_0_2_2_2_2

New Line.l(r:p2udm2722-p2udt738lv) Units=km Length=0.00995719 bus1=p2udt738lv.1.2 bus2=p2udm2722.1.2 switch=n enabled=y phases=2 Linecode=1P_UG_AL_4/0_Sweetbriar_0_416_0_2_2_2_2

New Line.l(r:p2udm2724-p2ulv18468) Units=km Length=0.0200291 bus1=p2udm2724.1.2 bus2=p2ulv18468.1.2 switch=n enabled=y phases=2 Linecode=1P_UG_AL_1/0_Brenau_0_416_0_2_2_2_2

New Line.l(r:p2udm2724-p2ulv19388) Units=km Length=0.0186625 bus1=p2udm2724.1.2 bus2=p2ulv19388.1.2 switch=n enabled=y phases=2 Linecode=1P_UG_AL_1/0_Brenau_0_416_0_2_2_2_2

New Line.l(r:p2udm2724-p2udt738lv) Units=km Length=0.009966040000000002 bus1=p2udt738lv.1.2 bus2=p2udm2724.1.2 switch=n enabled=y phases=2 Linecode=1P_UG_AL_4/0_Sweetbriar_0_416_0_2_2_2_2

New Line.l(r:p2udm2744-p2ulv793) Units=km Length=0.0208082 bus1=p2udm2744.1.2 bus2=p2ulv793.1.2 switch=n enabled=y phases=2 Linecode=1P_UG_AL_1/0_Brenau_0_416_0_2_2_2_2

New Line.l(r:p2udm2744-p2udt742lv) Units=km Length=0.0163157 bus1=p2udt742lv.1.2 bus2=p2udm2744.1.2 switch=n enabled=y phases=2 Linecode=1P_UG_AL_1/0_Brenau_0_416_0_2_2_2_2

New Line.l(r:p2udm2745-p2ulv3959) Units=km Length=0.0193321 bus1=p2udm2745.1.2 bus2=p2ulv3959.1.2 switch=n enabled=y phases=2 Linecode=1P_UG_AL_2/0_Converse_0_416_0_2_2_2_2

New Line.l(r:p2udm2745-p2ulv8540) Units=km Length=0.0140984 bus1=p2udm2745.1.2 bus2=p2ulv8540.1.2 switch=n enabled=y phases=2 Linecode=1P_UG_AL_1/0_Brenau_0_416_0_2_2_2_2

New Line.l(r:p2udm2745-p2udt742lv) Units=km Length=0.0081573 bus1=p2udt742lv.1.2 bus2=p2udm2745.1.2 switch=n enabled=y phases=2 Linecode=1P_UG_AL_4/0_Sweetbriar_0_416_0_2_2_2_2

New Line.l(r:p2udt743lv-p2ulv794) Units=km Length=0.0196502 bus1=p2udt743lv.1.2 bus2=p2ulv794.1.2 switch=n enabled=y phases=2 Linecode=1P_OH_AL_2/0_Rucina_0_416_0_2_2_2_2

New Line.l(r:p2udt743lv-p2ulv9660) Units=km Length=0.0185415 bus1=p2udt743lv.1.2 bus2=p2ulv9660.1.2 switch=n enabled=y phases=2 Linecode=1P_OH_AL_2/0_Rucina_0_416_0_2_2_2_2

New Line.l(r:p2udm2749-p2ulv11817) Units=km Length=0.0194771 bus1=p2udm2749.1.2 bus2=p2ulv11817.1.2 switch=n enabled=y phases=2 Linecode=1P_OH_AL_2/0_Rucina_0_416_0_2_2_2_2

New Line.l(r:p2udm2749-p2ulv19145) Units=km Length=0.019695500000000005 bus1=p2udm2749.1.2 bus2=p2ulv19145.1.2 switch=n enabled=y phases=2 Linecode=1P_OH_AL_2/0_Rucina_0_416_0_2_2_2_2

New Line.l(r:p2udm2749-p2udt743lv) Units=km Length=0.0140558 bus1=p2udt743lv.1.2 bus2=p2udm2749.1.2 switch=n enabled=y phases=2 Linecode=1P_OH_AL_2/0_Rucina_0_416_0_2_2_2_2

New Line.l(r:p2udt744lv-p2ulv12058) Units=km Length=0.0163745 bus1=p2udt744lv.1.2 bus2=p2ulv12058.1.2 switch=n enabled=y phases=2 Linecode=1P_UG_AL_1/0_Brenau_0_416_0_2_2_2_2

New Line.l(r:p2udm2751-p2ulv795) Units=km Length=0.0181528 bus1=p2udm2751.1.2 bus2=p2ulv795.1.2 switch=n enabled=y phases=2 Linecode=1P_UG_AL_1/0_Brenau_0_416_0_2_2_2_2

New Line.l(r:p2udm2753-p2ulv9661) Units=km Length=0.018645 bus1=p2udm2753.1.2 bus2=p2ulv9661.1.2 switch=n enabled=y phases=2 Linecode=1P_UG_AL_1/0_Brenau_0_416_0_2_2_2_2

New Line.l(r:p2udm2751-p2udm2753) Units=km Length=0.0165671 bus1=p2udm2751.1.2 bus2=p2udm2753.1.2 switch=n enabled=y phases=2 Linecode=1P_UG_AL_1/0_Brenau_0_416_0_2_2_2_2

New Line.l(r:p2udm2751-p2udt744lv) Units=km Length=0.0196593 bus1=p2udt744lv.1.2 bus2=p2udm2751.1.2 switch=n enabled=y phases=2 Linecode=1P_UG_AL_4/0_Sweetbriar_0_416_0_2_2_2_2

New Line.l(r:p2udm2752-p2ulv9217) Units=km Length=0.0172215 bus1=p2udm2752.1.2 bus2=p2ulv9217.1.2 switch=n enabled=y phases=2 Linecode=1P_UG_AL_1/0_Brenau_0_416_0_2_2_2_2

New Line.l(r:p2udm2752-p2ulv18261) Units=km Length=0.0199381 bus1=p2udm2752.1.2 bus2=p2ulv18261.1.2 switch=n enabled=y phases=2 Linecode=1P_UG_AL_1/0_Brenau_0_416_0_2_2_2_2

New Line.l(r:p2udm2757-p2ulv18915) Units=km Length=0.0185688 bus1=p2udm2757.1.2 bus2=p2ulv18915.1.2 switch=n enabled=y phases=2 Linecode=1P_UG_AL_1/0_Brenau_0_416_0_2_2_2_2

New Line.l(r:p2udm2754-p2ulv10632) Units=km Length=0.0181896 bus1=p2udm2754.1.2 bus2=p2ulv10632.1.2 switch=n enabled=y phases=2 Linecode=1P_UG_AL_1/0_Brenau_0_416_0_2_2_2_2

New Line.l(r:p2udm2754-p2udm2757) Units=km Length=0.00982481 bus1=p2udm2757.1.2 bus2=p2udm2754.1.2 switch=n enabled=y phases=2 Linecode=1P_UG_AL_1/0_Brenau_0_416_0_2_2_2_2

New Line.l(r:p2udm2752-p2udm2757) Units=km Length=0.00982218 bus1=p2udm2752.1.2 bus2=p2udm2757.1.2 switch=n enabled=y phases=2 Linecode=1P_UG_AL_2/0_Converse_0_416_0_2_2_2_2

New Line.l(r:p2udm2752-p2udt744lv) Units=km Length=0.00982481 bus1=p2udt744lv.1.2 bus2=p2udm2752.1.2 switch=n enabled=y phases=2 Linecode=1P_UG_AL_4/0_Sweetbriar_0_416_0_2_2_2_2

New Line.l(r:p2udt745lv-p2ulv15729) Units=km Length=0.016228800000000005 bus1=p2udt745lv.1.2 bus2=p2ulv15729.1.2 switch=n enabled=y phases=2 Linecode=1P_UG_AL_1/0_Brenau_0_416_0_2_2_2_2

New Line.l(r:p2udm2759-p2ulv3463) Units=km Length=0.0164015 bus1=p2udm2759.1.2 bus2=p2ulv3463.1.2 switch=n enabled=y phases=2 Linecode=1P_UG_AL_1/0_Brenau_0_416_0_2_2_2_2

New Line.l(r:p2udm2759-p2ulv17822) Units=km Length=0.01482 bus1=p2udm2759.1.2 bus2=p2ulv17822.1.2 switch=n enabled=y phases=2 Linecode=1P_UG_AL_1/0_Brenau_0_416_0_2_2_2_2

New Line.l(r:p2udm2761-p2ulv17133) Units=km Length=0.0178721 bus1=p2udm2761.1.2 bus2=p2ulv17133.1.2 switch=n enabled=y phases=2 Linecode=1P_UG_AL_1/0_Brenau_0_416_0_2_2_2_2

New Line.l(r:p2udm2759-p2udm2761) Units=km Length=0.00945415 bus1=p2udm2759.1.2 bus2=p2udm2761.1.2 switch=n enabled=y phases=2 Linecode=1P_UG_AL_1/0_Brenau_0_416_0_2_2_2_2

New Line.l(r:p2udm2759-p2udt745lv) Units=km Length=0.00946414 bus1=p2udt745lv.1.2 bus2=p2udm2759.1.2 switch=n enabled=y phases=2 Linecode=1P_UG_AL_4/0_Sweetbriar_0_416_0_2_2_2_2

New Line.l(r:p2udm2763-p2ulv22772) Units=km Length=0.0166623 bus1=p2udm2763.1.2 bus2=p2ulv22772.1.2 switch=n enabled=y phases=2 Linecode=1P_UG_AL_1/0_Brenau_0_416_0_2_2_2_2

New Line.l(r:p2udm2758-p2ulv796) Units=km Length=0.0168855 bus1=p2udm2758.1.2 bus2=p2ulv796.1.2 switch=n enabled=y phases=2 Linecode=1P_UG_AL_1/0_Brenau_0_416_0_2_2_2_2

New Line.l(r:p2udm2758-p2udm2763) Units=km Length=0.00946414 bus1=p2udm2763.1.2 bus2=p2udm2758.1.2 switch=n enabled=y phases=2 Linecode=1P_UG_AL_1/0_Brenau_0_416_0_2_2_2_2

New Line.l(r:p2udm2763-p2udt745lv) Units=km Length=0.018928300000000002 bus1=p2udt745lv.1.2 bus2=p2udm2763.1.2 switch=n enabled=y phases=2 Linecode=1P_UG_AL_4/0_Sweetbriar_0_416_0_2_2_2_2

New Line.l(r:p2udt903lv-p2ulv966) Units=km Length=0.020561200000000005 bus1=p2udt903lv.1.2 bus2=p2ulv966.1.2 switch=n enabled=y phases=2 Linecode=1P_OH_AL_2/0_Rucina_0_416_0_2_2_2_2

New Line.l(r:p2udt903lv-p2ulv23350) Units=km Length=0.020561200000000005 bus1=p2udt903lv.1.2 bus2=p2ulv23350.1.2 switch=n enabled=y phases=2 Linecode=1P_OH_AL_2/0_Rucina_0_416_0_2_2_2_2

New Line.l(r:p2udm3582-p2ulv1046) Units=km Length=0.0143064 bus1=p2udm3582.1.2 bus2=p2ulv1046.1.2 switch=n enabled=y phases=2 Linecode=1P_UG_AL_1/0_Brenau_0_416_0_2_2_2_2

New Line.l(r:p2udm3582-p2udt973lv) Units=km Length=0.009123040000000002 bus1=p2udt973lv.1.2 bus2=p2udm3582.1.2 switch=n enabled=y phases=2 Linecode=1P_UG_AL_1/0_Brenau_0_416_0_2_2_2_2

New Line.l(r:p2udm3583-p2ulv10621) Units=km Length=0.0120979 bus1=p2udm3583.1.2 bus2=p2ulv10621.1.2 switch=n enabled=y phases=2 Linecode=1P_UG_AL_1/0_Brenau_0_416_0_2_2_2_2

New Line.l(r:p2udm3583-p2udt973lv) Units=km Length=0.009123040000000002 bus1=p2udt973lv.1.2 bus2=p2udm3583.1.2 switch=n enabled=y phases=2 Linecode=1P_UG_AL_1/0_Brenau_0_416_0_2_2_2_2

New Line.l(r:p2udt976lv-p2ulv1052) Units=km Length=0.0209282 bus1=p2udt976lv.1.2 bus2=p2ulv1052.1.2 switch=n enabled=y phases=2 Linecode=1P_OH_AL_2/0_Rucina_0_416_0_2_2_2_2

New Line.l(r:p2udm3592-p2ulv14151) Units=km Length=0.019648200000000005 bus1=p2udm3592.1.2 bus2=p2ulv14151.1.2 switch=n enabled=y phases=2 Linecode=1P_OH_AL_2/0_Rucina_0_416_0_2_2_2_2

New Line.l(r:p2udm3592-p2udt976lv) Units=km Length=0.0178104 bus1=p2udt976lv.1.2 bus2=p2udm3592.1.2 switch=n enabled=y phases=2 Linecode=1P_OH_AL_2/0_Rucina_0_416_0_2_2_2_2

New Line.l(r:p2udm3593-p2ulv18913) Units=km Length=0.0201738 bus1=p2udm3593.1.2 bus2=p2ulv18913.1.2 switch=n enabled=y phases=2 Linecode=1P_OH_AL_2/0_Rucina_0_416_0_2_2_2_2

New Line.l(r:p2udm3593-p2udt976lv) Units=km Length=0.0178138 bus1=p2udt976lv.1.2 bus2=p2udm3593.1.2 switch=n enabled=y phases=2 Linecode=1P_OH_AL_2/0_Rucina_0_416_0_2_2_2_2

New Line.l(r:p2udt977lv-p2ulv18030) Units=km Length=0.0158057 bus1=p2udt977lv.1.2 bus2=p2ulv18030.1.2 switch=n enabled=y phases=2 Linecode=1P_OH_AL_2/0_Rucina_0_416_0_2_2_2_2

New Line.l(r:p2udm3594-p2ulv1053) Units=km Length=0.0167322 bus1=p2udm3594.1.2 bus2=p2ulv1053.1.2 switch=n enabled=y phases=2 Linecode=1P_OH_AL_2/0_Rucina_0_416_0_2_2_2_2

New Line.l(r:p2udm3594-p2ulv15276) Units=km Length=0.0182838 bus1=p2udm3594.1.2 bus2=p2ulv15276.1.2 switch=n enabled=y phases=2 Linecode=1P_OH_AL_2/0_Rucina_0_416_0_2_2_2_2

New Line.l(r:p2udm3600-p2ulv18914) Units=km Length=0.0191586 bus1=p2udm3600.1.2 bus2=p2ulv18914.1.2 switch=n enabled=y phases=2 Linecode=1P_OH_AL_2/0_Rucina_0_416_0_2_2_2_2

New Line.l(r:p2udm3594-p2udm3600) Units=km Length=0.0179151 bus1=p2udm3594.1.2 bus2=p2udm3600.1.2 switch=n enabled=y phases=2 Linecode=1P_OH_AL_2/0_Rucina_0_416_0_2_2_2_2

New Line.l(r:p2udm3594-p2udt977lv) Units=km Length=0.0179229 bus1=p2udt977lv.1.2 bus2=p2udm3594.1.2 switch=n enabled=y phases=2 Linecode=1P_OH_AL_2/0_Rucina_0_416_0_2_2_2_2

New Line.l(r:p2udm3597-p2ulv13723) Units=km Length=0.0171844 bus1=p2udm3597.1.2 bus2=p2ulv13723.1.2 switch=n enabled=y phases=2 Linecode=1P_UG_AL_1/0_Brenau_0_416_0_2_2_2_2

New Line.l(r:p2udm3596-p2ulv12772) Units=km Length=0.015019500000000002 bus1=p2udm3596.1.2 bus2=p2ulv12772.1.2 switch=n enabled=y phases=2 Linecode=1P_UG_AL_1/0_Brenau_0_416_0_2_2_2_2

New Line.l(r:p2udm3595-p2ulv7345) Units=km Length=0.0172289 bus1=p2udm3595.1.2 bus2=p2ulv7345.1.2 switch=n enabled=y phases=2 Linecode=1P_UG_AL_1/0_Brenau_0_416_0_2_2_2_2

New Line.l(r:p2udm3595-p2udm3596) Units=km Length=0.00776568 bus1=p2udm3596.1.2 bus2=p2udm3595.1.2 switch=n enabled=y phases=2 Linecode=1P_UG_AL_1/0_Brenau_0_416_0_2_2_2_2

New Line.l(r:p2udm3596-p2udm3597) Units=km Length=0.00776479 bus1=p2udm3597.1.2 bus2=p2udm3596.1.2 switch=n enabled=y phases=2 Linecode=1P_UG_AL_1/0_Brenau_0_416_0_2_2_2_2

New Line.l(r:p2udm3597-p2udt977lv) Units=km Length=0.00776568 bus1=p2udt977lv.1.2 bus2=p2udm3597.1.2 switch=n enabled=y phases=2 Linecode=1P_OH_AL_2/0_Rucina_0_416_0_2_2_2_2

New Line.l(r:p2udm3601-p2ulv1054) Units=km Length=0.018796 bus1=p2udm3601.1.2 bus2=p2ulv1054.1.2 switch=n enabled=y phases=2 Linecode=1P_UG_AL_1/0_Brenau_0_416_0_2_2_2_2

New Line.l(r:p2udm3601-p2ulv14592) Units=km Length=0.0191046 bus1=p2udm3601.1.2 bus2=p2ulv14592.1.2 switch=n enabled=y phases=2 Linecode=1P_UG_AL_1/0_Brenau_0_416_0_2_2_2_2

New Line.l(r:p2udm3601-p2udt978lv) Units=km Length=0.009839640000000002 bus1=p2udt978lv.1.2 bus2=p2udm3601.1.2 switch=n enabled=y phases=2 Linecode=1P_UG_AL_4/0_Sweetbriar_0_416_0_2_2_2_2

New Line.l(r:p2udm3602-p2ulv4457) Units=km Length=0.0188625 bus1=p2udm3602.1.2 bus2=p2ulv4457.1.2 switch=n enabled=y phases=2 Linecode=1P_UG_AL_1/0_Brenau_0_416_0_2_2_2_2

New Line.l(r:p2udm3602-p2ulv12286) Units=km Length=0.0198847 bus1=p2udm3602.1.2 bus2=p2ulv12286.1.2 switch=n enabled=y phases=2 Linecode=1P_UG_AL_1/0_Brenau_0_416_0_2_2_2_2

New Line.l(r:p2udm3602-p2ulv14815) Units=km Length=0.0201068 bus1=p2udm3602.1.2 bus2=p2ulv14815.1.2 switch=n enabled=y phases=2 Linecode=1P_UG_AL_1/0_Brenau_0_416_0_2_2_2_2

New Line.l(r:p2udm3602-p2ulv17589) Units=km Length=0.0181802 bus1=p2udm3602.1.2 bus2=p2ulv17589.1.2 switch=n enabled=y phases=2 Linecode=1P_UG_AL_1/0_Brenau_0_416_0_2_2_2_2

New Line.l(r:p2udm3602-p2udt978lv) Units=km Length=0.00984844 bus1=p2udt978lv.1.2 bus2=p2udm3602.1.2 switch=n enabled=y phases=2 Linecode=1P_UG_AL_4/0_Sweetbriar_0_416_0_2_2_2_2

New Line.l(r:p2udt979lv-p2ulv1055) Units=km Length=0.049497700000000006 bus1=p2udt979lv.1.2 bus2=p2ulv1055.1.2 switch=n enabled=y phases=2 Linecode=1P_OH_AL_4/0_Zuzara_0_416_0_2_2_2_2

New Line.l(r:p2udt979lv-p2ulv23634) Units=km Length=0.049497700000000006 bus1=p2udt979lv.1.2 bus2=p2ulv23634.1.2 switch=n enabled=y phases=2 Linecode=1P_OH_AL_4/0_Zuzara_0_416_0_2_2_2_2

New Line.l(r:p2udt980lv-p2ulv1056) Units=km Length=0.0860554 bus1=p2udt980lv.1.2 bus2=p2ulv1056.1.2 switch=n enabled=y phases=2 Linecode=1P_OH_AL_4/0_Zuzara_0_416_0_2_2_2_2

New Line.l(r:p2udt1111lv-p2ulv1209) Units=km Length=0.001 bus1=p2udt1111lv.1.2 bus2=p2ulv1209.1.2 switch=n enabled=y phases=2 Linecode=1P_OH_AL_4_Periwinkle_0_416_0_2_2_2_2
