New Line.sb8_p1rhs0_1247_95 Units=km Length=0.0020786479999999998 bus1=sb8_p1rhs0_1247_bus_8_2.1.2.3 bus2=p1rdt5663-p1rhs0_1247x.1.2.3 switch=n enabled=y phases=3 Linecode=3P_OH_Code5_3_3_3_3_3_3_3_3_3_3_3_3_3_3_3_3_3_3_3_3_3_3_3_3_3_3_3_3

New Line.sb8_p1rhs0_1247_96 Units=km Length=0.002267616 bus1=sb8_p1rhs0_1247_bus_8_3.1.2.3 bus2=p1rdt6854-p1rhs0_1247x.1.2.3 switch=n enabled=y phases=3 Linecode=3P_OH_Code5_3_3_3_3_3_3_3_3_3_3_3_3_3_3_3_3_3_3_3_3_3_3_3_3_3_3_3_3

New Line.sb8_p1rhs0_1247_71 Units=km Length=0.001 bus1=sb8_p1rhs0_1247_node_8_7.1.2.3 bus2=sb8_p1rhs0_1247_node_8_8.1.2.3 switch=n enabled=y phases=3 Linecode=RECLOSER_13KV_3_3_3_3_3_3_3_3_3_3_3_3_3_3_3_3_3_3_3_3_3_3_3_3_3_3_3_3_3

New Line.sb8_p1rhs0_1247_40 Units=km Length=0.001 bus1=sb8_p1rhs0_1247_node_8_5.1.2.3 bus2=sb8_p1rhs0_1247_node_8_6.1.2.3 switch=n enabled=y phases=3 Linecode=RECLOSER_13KV_3_3_3_3_3_3_3_3_3_3_3_3_3_3_3_3_3_3_3_3_3_3_3_3_3_3_3_3_3

New Line.sb8_p1rhs0_1247_402 Units=km Length=0.001 bus1=sb8_p1rhs0_1247_node_8_4.1.2.3 bus2=sb8_p1rhs0_1247_bus_8_1.1.2.3 switch=y enabled=y phases=3 Linecode=LOADBREAK_SWITCH_13KV_3_3_3_3_3_3_3_3_3_3_3_3_3_3_3_3_3_3_3_3_3_3_3_3_3_3_3_3_3

New Line.sb8_p1rhs0_1247_404 Units=km Length=0.001 bus1=sb8_p1rhs0_1247_node_8_6.1.2.3 bus2=sb8_p1rhs0_1247_bus_8_2.1.2.3 switch=y enabled=y phases=3 Linecode=DISCONNECT_SWITCH_13KV_3_3_3_3_3_3_3_3_3_3_3_3_3_3_3_3_3_3_3_3_3_3_3_3_3_3_3_3_3

New Line.sb8_p1rhs0_1247_406 Units=km Length=0.001 bus1=sb8_p1rhs0_1247_node_8_7.1.2.3 bus2=sb8_p1rhs0_1247_bus_8_1.1.2.3 switch=y enabled=y phases=3 Linecode=DISCONNECT_SWITCH_13KV_3_3_3_3_3_3_3_3_3_3_3_3_3_3_3_3_3_3_3_3_3_3_3_3_3_3_3_3_3

New Line.sb8_p1rhs0_1247_72 Units=km Length=0.001 bus1=sb8_p1rhs0_1247_node_8_8.1.2.3 bus2=sb8_p1rhs0_1247_bus_8_3.1.2.3 switch=y enabled=y phases=3 Linecode=DISCONNECT_SWITCH_13KV_3_3_3_3_3_3_3_3_3_3_3_3_3_3_3_3_3_3_3_3_3_3_3_3_3_3_3_3_3

New Line.sb8_p1rhs0_1247_36 Units=km Length=0.001 bus1=sb8_p1rhs0_1247_bus_8_1.1.2.3 bus2=sb8_p1rhs0_1247_bus_8_2.1.2.3 switch=y enabled=n phases=3 Linecode=DISCONNECT_SWITCH_13KV_3_3_3_3_3_3_3_3_3_3_3_3_3_3_3_3_3_3_3_3_3_3_3_3_3_3_3_3_3

New Line.sb8_p1rhs0_1247_401 Units=km Length=0.001 bus1=sb8_p1rhs0_1247_node_8_3.1.2.3 bus2=sb8_p1rhs0_1247_node_8_9.1.2.3 switch=n enabled=y phases=3 Linecode=FUSE_1_69KV_3_3_3_3_3_3_3_3_3_3_3_3_3_3_3_3_3_3_3_3_3_3_3_3_3_3_3_3_3

New Fuse.Fuse_sb8_p1rhs0_1247_401 monitoredobj=Line.sb8_p1rhs0_1247_401 enabled=y ratedcurrent=600.0

New Line.sb8_p1rhs0_1247_403 Units=km Length=0.001 bus1=sb8_p1rhs0_1247_node_8_3.1.2.3 bus2=p1rhs0_69.1.2.3 switch=y enabled=y phases=3 Linecode=DISCONNECT_SWITCH_69KV_3_3_3_3_3_3_3_3_3_3_3_3_3_3_3_3_3_3_3_3_3_3_3_3_3_3_3_3_3

New Line.sb8_p1rhs0_1247_405 Units=km Length=0.001 bus1=sb8_p1rhs0_1247_node_8_5.1.2.3 bus2=sb8_p1rhs0_1247_bus_8_1.1.2.3 switch=y enabled=y phases=3 Linecode=DISCONNECT_SWITCH_13KV_3_3_3_3_3_3_3_3_3_3_3_3_3_3_3_3_3_3_3_3_3_3_3_3_3_3_3_3_3

New Line.sb8_p1rhs0_1247_45 Units=km Length=0.001 bus1=sb8_p1rhs0_1247_bus_8_1.1.2.3 bus2=sb8_p1rhs0_1247_bus_8_3.1.2.3 switch=y enabled=n phases=3 Linecode=DISCONNECT_SWITCH_13KV_3_3_3_3_3_3_3_3_3_3_3_3_3_3_3_3_3_3_3_3_3_3_3_3_3_3_3_3_3

