New Load.load_p3ulv813 conn=wye bus1=p3ulv813.1.2 kV=0.2080002494301389 Vminpu=0.8 Vmaxpu=1.2 model=1 kW=5.48005 kvar=1.109900972441596 Phases=2

New Load.load_p3ulv814 conn=wye bus1=p3ulv814.1.2 kV=0.2080002494301389 Vminpu=0.8 Vmaxpu=1.2 model=1 kW=6.71007 kvar=1.3590228589431081 Phases=2

New Load.load_p3ulv815 conn=wye bus1=p3ulv815.1.2 kV=0.2080002494301389 Vminpu=0.8 Vmaxpu=1.2 model=1 kW=5.62006 kvar=1.141201856282742 Phases=2

New Load.load_p3ulv2376 conn=wye bus1=p3ulv2376.1.2.3 kV=0.48 Vminpu=0.8 Vmaxpu=1.2 model=1 kW=128.101 kvar=26.012017485876584 Phases=3

New Load.load_p3ulv2378 conn=wye bus1=p3ulv2378.1.2 kV=0.2080002494301389 Vminpu=0.8 Vmaxpu=1.2 model=1 kW=14.9801 kvar=3.041839042163448 Phases=2

New Load.load_p3ulv2379 conn=wye bus1=p3ulv2379.1.2.3 kV=0.48 Vminpu=0.8 Vmaxpu=1.2 model=1 kW=118.241 kvar=24.0098590920253 Phases=3

New Load.load_p3ulv2380 conn=wye bus1=p3ulv2380.1.2 kV=0.2080002494301389 Vminpu=0.8 Vmaxpu=1.2 model=1 kW=5.62006 kvar=1.141201856282742 Phases=2

New Load.load_p3ulv2381 conn=wye bus1=p3ulv2381.1.2 kV=0.2080002494301389 Vminpu=0.8 Vmaxpu=1.2 model=1 kW=6.09006 kvar=1.2398223763310365 Phases=2

New Load.load_p3ulv2382 conn=wye bus1=p3ulv2382.1.2 kV=0.2080002494301389 Vminpu=0.8 Vmaxpu=1.2 model=1 kW=5.82006 kvar=1.1787648385814788 Phases=2

New Load.load_p3ulv3165 conn=wye bus1=p3ulv3165.1.2.3 kV=0.48 Vminpu=0.8 Vmaxpu=1.2 model=1 kW=118.80099999999999 kvar=39.04800037935412 Phases=3

New Load.load_p3ulv3166 conn=wye bus1=p3ulv3166.1.2 kV=0.2080002494301389 Vminpu=0.8 Vmaxpu=1.2 model=1 kW=12.420100000000001 kvar=2.5220088709403967 Phases=2

New Load.load_p3ulv3632 conn=wye bus1=p3ulv3632.1.2 kV=0.2080002494301389 Vminpu=0.8 Vmaxpu=1.2 model=1 kW=2.21002 kvar=0.4499187607575488 Phases=2

New Load.load_p3ulv3994 conn=wye bus1=p3ulv3994.1.2.3 kV=0.48 Vminpu=0.8 Vmaxpu=1.2 model=1 kW=115.071 kvar=37.82200866703696 Phases=3

New Load.load_p3ulv3995 conn=wye bus1=p3ulv3995.1.2 kV=0.2080002494301389 Vminpu=0.8 Vmaxpu=1.2 model=1 kW=5.41005 kvar=1.101385051554455 Phases=2

New Load.load_p3ulv3996 conn=wye bus1=p3ulv3996.1.2 kV=0.2080002494301389 Vminpu=0.8 Vmaxpu=1.2 model=1 kW=6.46006 kvar=1.30838712713042 Phases=2

New Load.load_p3ulv4761 conn=wye bus1=p3ulv4761.1.2 kV=0.2080002494301389 Vminpu=0.8 Vmaxpu=1.2 model=1 kW=12.6101 kvar=2.560590016460857 Phases=2

New Load.load_p3ulv4762 conn=wye bus1=p3ulv4762.1.2 kV=0.2080002494301389 Vminpu=0.8 Vmaxpu=1.2 model=1 kW=6.100060000000001 kvar=1.2386700133870643 Phases=2

New Load.load_p3ulv4763 conn=wye bus1=p3ulv4763.1.2 kV=0.2080002494301389 Vminpu=0.8 Vmaxpu=1.2 model=1 kW=5.94006 kvar=1.2092851802361448 Phases=2

New Load.load_p3ulv4764 conn=wye bus1=p3ulv4764.1.2 kV=0.2080002494301389 Vminpu=0.8 Vmaxpu=1.2 model=1 kW=5.94006 kvar=1.2092851802361448 Phases=2

New Load.load_p3umv3 conn=wye bus1=p3umv3.1.2.3 kV=12.47 Vminpu=0.8 Vmaxpu=1.2 model=1 kW=768.5779999999999 kvar=252.61937219016022 Phases=3

New Load.load_p3ulv5569 conn=wye bus1=p3ulv5569.1.2.3 kV=0.48 Vminpu=0.8 Vmaxpu=1.2 model=1 kW=25.960300000000004 kvar=5.271463747656942 Phases=3

New Load.load_p3ulv6351 conn=wye bus1=p3ulv6351.1.2 kV=0.2080002494301389 Vminpu=0.8 Vmaxpu=1.2 model=1 kW=6.17006 kvar=1.249652027631681 Phases=2

New Load.load_p3ulv7178 conn=wye bus1=p3ulv7178.1.2.3 kV=0.48 Vminpu=0.8 Vmaxpu=1.2 model=1 kW=31.9403 kvar=6.485754538248288 Phases=3

New Load.load_p3ulv7179 conn=wye bus1=p3ulv7179.1.2 kV=0.2080002494301389 Vminpu=0.8 Vmaxpu=1.2 model=1 kW=5.72006 kvar=1.1585113559957074 Phases=2

New Load.load_p3ulv7180 conn=wye bus1=p3ulv7180.1.2 kV=0.2080002494301389 Vminpu=0.8 Vmaxpu=1.2 model=1 kW=6.100060000000001 kvar=1.2386700133870643 Phases=2

New Load.load_p3ulv7977 conn=wye bus1=p3ulv7977.1.2 kV=0.2080002494301389 Vminpu=0.8 Vmaxpu=1.2 model=1 kW=6.16006 kvar=1.2508535330251045 Phases=2

New Load.load_p3ulv7978 conn=wye bus1=p3ulv7978.1.2 kV=0.2080002494301389 Vminpu=0.8 Vmaxpu=1.2 model=1 kW=6.48006 kvar=1.3192190861777544 Phases=2

New Load.load_p3ulv8742 conn=wye bus1=p3ulv8742.1.2 kV=0.2080002494301389 Vminpu=0.8 Vmaxpu=1.2 model=1 kW=7.73008 kvar=1.5696596913937038 Phases=2

New Load.load_p3ulv8743 conn=wye bus1=p3ulv8743.1.2 kV=0.2080002494301389 Vminpu=0.8 Vmaxpu=1.2 model=1 kW=5.600060000000001 kvar=1.1400675357543906 Phases=2

New Load.load_p3ulv9472 conn=wye bus1=p3ulv9472.1.2.3 kV=0.48 Vminpu=0.8 Vmaxpu=1.2 model=1 kW=34.3203 kvar=6.969034150557217 Phases=3

New Load.load_p3ulv10431 conn=wye bus1=p3ulv10431.1.2 kV=0.2080002494301389 Vminpu=0.8 Vmaxpu=1.2 model=1 kW=5.40005 kvar=1.0993492384814623 Phases=2

New Load.load_p3ulv11093 conn=wye bus1=p3ulv11093.1.2 kV=0.2080002494301389 Vminpu=0.8 Vmaxpu=1.2 model=1 kW=16.6302 kvar=5.471981458244348 Phases=2

New Load.load_p3ulv11094 conn=wye bus1=p3ulv11094.1.2 kV=0.2080002494301389 Vminpu=0.8 Vmaxpu=1.2 model=1 kW=6.97007 kvar=1.4189759625674734 Phases=2

New Load.load_p3ulv11095 conn=wye bus1=p3ulv11095.1.2 kV=0.2080002494301389 Vminpu=0.8 Vmaxpu=1.2 model=1 kW=6.11006 kvar=1.2407005999934042 Phases=2

New Load.load_p3ulv11258 conn=wye bus1=p3ulv11258.1.2 kV=0.2080002494301389 Vminpu=0.8 Vmaxpu=1.2 model=1 kW=7.450070000000001 kvar=1.5088986300778207 Phases=2

New Load.load_p3ulv11897 conn=wye bus1=p3ulv11897.1.2 kV=0.2080002494301389 Vminpu=0.8 Vmaxpu=1.2 model=1 kW=14.5401 kvar=2.9524932314844854 Phases=2

New Load.load_p3ulv12632 conn=wye bus1=p3ulv12632.1.2 kV=0.2080002494301389 Vminpu=0.8 Vmaxpu=1.2 model=1 kW=0.9900100000000001 kvar=0.3299452313439445 Phases=2

New Load.load_p3ulv12633 conn=wye bus1=p3ulv12633.1.2 kV=0.2080002494301389 Vminpu=0.8 Vmaxpu=1.2 model=1 kW=5.99006 kvar=1.2194642456011087 Phases=2

New Load.load_p3ulv13404 conn=wye bus1=p3ulv13404.1.2.3 kV=0.48 Vminpu=0.8 Vmaxpu=1.2 model=1 kW=29.1503 kvar=5.919220875079415 Phases=3

New Load.load_p3ulv13405 conn=wye bus1=p3ulv13405.1.2 kV=0.2080002494301389 Vminpu=0.8 Vmaxpu=1.2 model=1 kW=9.01009 kvar=1.8295768075918357 Phases=2

New Load.load_p3ulv13406 conn=wye bus1=p3ulv13406.1.2 kV=0.2080002494301389 Vminpu=0.8 Vmaxpu=1.2 model=1 kW=5.28005 kvar=1.069394007270052 Phases=2

New Load.load_p3ulv14185 conn=wye bus1=p3ulv14185.1.2 kV=0.2080002494301389 Vminpu=0.8 Vmaxpu=1.2 model=1 kW=9.34009 kvar=1.9014677324929066 Phases=2

New Load.load_p3ulv14186 conn=wye bus1=p3ulv14186.1.2 kV=0.2080002494301389 Vminpu=0.8 Vmaxpu=1.2 model=1 kW=15.4502 kvar=3.1372969185274933 Phases=2

New Load.load_p3ulv14187 conn=wye bus1=p3ulv14187.1.2 kV=0.2080002494301389 Vminpu=0.8 Vmaxpu=1.2 model=1 kW=5.66006 kvar=1.149324202708102 Phases=2

New Load.load_p3ulv14964 conn=wye bus1=p3ulv14964.1.2 kV=0.2080002494301389 Vminpu=0.8 Vmaxpu=1.2 model=1 kW=7.83008 kvar=1.5899655574571043 Phases=2

New Load.load_p3ulv15396 conn=wye bus1=p3ulv15396.1.2.3 kV=0.48 Vminpu=0.8 Vmaxpu=1.2 model=1 kW=38.0004 kvar=7.716310327556417 Phases=3

New Load.load_p3ulv15780 conn=wye bus1=p3ulv15780.1.2 kV=0.2080002494301389 Vminpu=0.8 Vmaxpu=1.2 model=1 kW=10.8701 kvar=2.2072679469576904 Phases=2

New Load.load_p3ulv15781 conn=wye bus1=p3ulv15781.1.2 kV=0.2080002494301389 Vminpu=0.8 Vmaxpu=1.2 model=1 kW=6.07006 kvar=1.2293985450459088 Phases=2

New Load.load_p3ulv16603 conn=wye bus1=p3ulv16603.1.2.3 kV=0.48 Vminpu=0.8 Vmaxpu=1.2 model=1 kW=40.5504 kvar=8.234109912173128 Phases=3

New Load.load_p3ulv16604 conn=wye bus1=p3ulv16604.1.2 kV=0.2080002494301389 Vminpu=0.8 Vmaxpu=1.2 model=1 kW=11.9401 kvar=2.4307811672841 Phases=2

New Load.load_p3ulv16605 conn=wye bus1=p3ulv16605.1.2 kV=0.2080002494301389 Vminpu=0.8 Vmaxpu=1.2 model=1 kW=11.6601 kvar=2.3676842888585536 Phases=2

New Load.load_p3ulv16606 conn=wye bus1=p3ulv16606.1.2 kV=0.2080002494301389 Vminpu=0.8 Vmaxpu=1.2 model=1 kW=5.91006 kvar=1.200088867866603 Phases=2

New Load.load_p3ulv17333 conn=wye bus1=p3ulv17333.1.2 kV=0.2080002494301389 Vminpu=0.8 Vmaxpu=1.2 model=1 kW=6.28006 kvar=1.2785028247178991 Phases=2

New Load.load_p3ulv18106 conn=wye bus1=p3ulv18106.1.2 kV=0.2080002494301389 Vminpu=0.8 Vmaxpu=1.2 model=1 kW=6.38006 kvar=1.298860955447827 Phases=2

New Load.load_p3ulv18885 conn=wye bus1=p3ulv18885.1.2 kV=0.2080002494301389 Vminpu=0.8 Vmaxpu=1.2 model=1 kW=10.4601 kvar=2.118534531954332 Phases=2

New Load.load_p3ulv18886 conn=wye bus1=p3ulv18886.1.2 kV=0.2080002494301389 Vminpu=0.8 Vmaxpu=1.2 model=1 kW=7.33007 kvar=1.488434196553496 Phases=2

New Load.load_p3ulv19021 conn=wye bus1=p3ulv19021.1.2 kV=0.2080002494301389 Vminpu=0.8 Vmaxpu=1.2 model=1 kW=0.850009 kvar=0.279987247081644 Phases=2

New Load.load_p3ulv19629 conn=wye bus1=p3ulv19629.1.2 kV=0.2080002494301389 Vminpu=0.8 Vmaxpu=1.2 model=1 kW=10.4601 kvar=3.441779007551426 Phases=2

New Load.load_p3ulv20028 conn=wye bus1=p3ulv20028.1.2 kV=0.2080002494301389 Vminpu=0.8 Vmaxpu=1.2 model=1 kW=6.00006 kvar=1.2215000586741016 Phases=2

New Load.load_p3ulv20400 conn=wye bus1=p3ulv20400.1.2 kV=0.2080002494301389 Vminpu=0.8 Vmaxpu=1.2 model=1 kW=5.62006 kvar=1.141201856282742 Phases=2

New Load.load_p3ulv21163 conn=wye bus1=p3ulv21163.1.2.3 kV=0.48 Vminpu=0.8 Vmaxpu=1.2 model=1 kW=79.6208 kvar=16.167693006607927 Phases=3

New Load.load_p3ulv21164 conn=wye bus1=p3ulv21164.1.2 kV=0.2080002494301389 Vminpu=0.8 Vmaxpu=1.2 model=1 kW=5.66006 kvar=1.149324202708102 Phases=2

New Load.load_p3ulv21165 conn=wye bus1=p3ulv21165.1.2 kV=0.2080002494301389 Vminpu=0.8 Vmaxpu=1.2 model=1 kW=5.57006 kvar=1.131048923251042 Phases=2

New Load.load_p3ulv22746 conn=wye bus1=p3ulv22746.1.2 kV=0.2080002494301389 Vminpu=0.8 Vmaxpu=1.2 model=1 kW=4.93005 kvar=1.0010893498586726 Phases=2

New Load.load_p3ulv22747 conn=wye bus1=p3ulv22747.1.2 kV=0.2080002494301389 Vminpu=0.8 Vmaxpu=1.2 model=1 kW=8.45008 kvar=1.7202783331834768 Phases=2

New Load.load_p3ulv22748 conn=wye bus1=p3ulv22748.1.2 kV=0.2080002494301389 Vminpu=0.8 Vmaxpu=1.2 model=1 kW=6.69007 kvar=1.358476653747733 Phases=2

New Load.load_p3ulv22749 conn=wye bus1=p3ulv22749.1.2 kV=0.2080002494301389 Vminpu=0.8 Vmaxpu=1.2 model=1 kW=4.71005 kvar=0.9588781364449609 Phases=2

New Load.load_p3ulv23503 conn=wye bus1=p3ulv23503.1.2 kV=0.2080002494301389 Vminpu=0.8 Vmaxpu=1.2 model=1 kW=9.24009 kvar=1.881109601762979 Phases=2

New Load.load_p3ulv24358 conn=wye bus1=p3ulv24358.1.2 kV=0.2080002494301389 Vminpu=0.8 Vmaxpu=1.2 model=1 kW=12.1301 kvar=3.99127384437047 Phases=2

New Load.load_p3ulv24808 conn=wye bus1=p3ulv24808.1.2.3 kV=0.48 Vminpu=0.8 Vmaxpu=1.2 model=1 kW=35.03039999999999 kvar=7.113226105473423 Phases=3

New Load.load_p3ulv25156 conn=wye bus1=p3ulv25156.1.2 kV=0.2080002494301389 Vminpu=0.8 Vmaxpu=1.2 model=1 kW=5.74006 kvar=1.1595483362074717 Phases=2

New Load.load_p3ulv25580 conn=wye bus1=p3ulv25580.1.2 kV=0.2080002494301389 Vminpu=0.8 Vmaxpu=1.2 model=1 kW=13.8801 kvar=2.8184745154660433 Phases=2

New Load.load_p3ulv25947 conn=wye bus1=p3ulv25947.1.2 kV=0.2080002494301389 Vminpu=0.8 Vmaxpu=1.2 model=1 kW=5.95006 kvar=1.2113209933091376 Phases=2

New Load.load_p3ulv26403 conn=wye bus1=p3ulv26403.1.2.3 kV=0.48 Vminpu=0.8 Vmaxpu=1.2 model=1 kW=53.0405 kvar=10.770332889357906 Phases=3

New Load.load_p3ulv26734 conn=wye bus1=p3ulv26734.1.2 kV=0.2080002494301389 Vminpu=0.8 Vmaxpu=1.2 model=1 kW=6.89007 kvar=1.399088385874534 Phases=2

New Load.load_p3ulv26735 conn=wye bus1=p3ulv26735.1.2 kV=0.2080002494301389 Vminpu=0.8 Vmaxpu=1.2 model=1 kW=6.20006 kvar=1.2589758794504644 Phases=2

New Load.load_p3ulv27507 conn=wye bus1=p3ulv27507.1.2 kV=0.2080002494301389 Vminpu=0.8 Vmaxpu=1.2 model=1 kW=5.890060000000001 kvar=1.199106114871181 Phases=2

New Load.load_p3ulv27508 conn=wye bus1=p3ulv27508.1.2 kV=0.2080002494301389 Vminpu=0.8 Vmaxpu=1.2 model=1 kW=5.40005 kvar=1.0993492384814623 Phases=2

New Load.load_p3ulv28269 conn=wye bus1=p3ulv28269.1.2 kV=0.2080002494301389 Vminpu=0.8 Vmaxpu=1.2 model=1 kW=6.49006 kvar=1.3212548992507473 Phases=2

New Load.load_p3ulv28659 conn=wye bus1=p3ulv28659.1.2.3 kV=0.48 Vminpu=0.8 Vmaxpu=1.2 model=1 kW=36.9404 kvar=7.5010681472843705 Phases=3

New Load.load_p3ulv28998 conn=wye bus1=p3ulv28998.1.2 kV=0.2080002494301389 Vminpu=0.8 Vmaxpu=1.2 model=1 kW=6.56007 kvar=1.3286426350644502 Phases=2

New Load.load_p3ulv29164 conn=wye bus1=p3ulv29164.1.2 kV=0.2080002494301389 Vminpu=0.8 Vmaxpu=1.2 model=1 kW=6.570070000000001 kvar=1.3306679833230275 Phases=2

New Load.load_p3ulv29776 conn=wye bus1=p3ulv29776.1.2 kV=0.2080002494301389 Vminpu=0.8 Vmaxpu=1.2 model=1 kW=6.63007 kvar=1.349758318085719 Phases=2

New Load.load_p3ulv29777 conn=wye bus1=p3ulv29777.1.2 kV=0.2080002494301389 Vminpu=0.8 Vmaxpu=1.2 model=1 kW=8.36008 kvar=1.7019560155265416 Phases=2

New Load.load_p3ulv29778 conn=wye bus1=p3ulv29778.1.2 kV=0.2080002494301389 Vminpu=0.8 Vmaxpu=1.2 model=1 kW=9.6501 kvar=1.959536380984205 Phases=2

New Load.load_p3ulv29779 conn=wye bus1=p3ulv29779.1.2 kV=0.2080002494301389 Vminpu=0.8 Vmaxpu=1.2 model=1 kW=5.86006 kvar=1.1899359348349032 Phases=2

New Load.load_p3ulv29780 conn=wye bus1=p3ulv29780.1.2 kV=0.2080002494301389 Vminpu=0.8 Vmaxpu=1.2 model=1 kW=6.700070000000001 kvar=1.3605072403540732 Phases=2

New Load.load_p3ulv30532 conn=wye bus1=p3ulv30532.1.2.3 kV=0.48 Vminpu=0.8 Vmaxpu=1.2 model=1 kW=51.3405 kvar=10.425133166280096 Phases=3

New Load.load_p3ulv30534 conn=wye bus1=p3ulv30534.1.2 kV=0.2080002494301389 Vminpu=0.8 Vmaxpu=1.2 model=1 kW=13.090100000000001 kvar=2.6580581735651796 Phases=2

New Load.load_p3ulv30535 conn=wye bus1=p3ulv30535.1.2 kV=0.2080002494301389 Vminpu=0.8 Vmaxpu=1.2 model=1 kW=6.100060000000001 kvar=1.2386700133870643 Phases=2

New Load.load_p3ulv30536 conn=wye bus1=p3ulv30536.1.2 kV=0.2080002494301389 Vminpu=0.8 Vmaxpu=1.2 model=1 kW=5.640060000000001 kvar=1.151151897424806 Phases=2

New Load.load_p3ulv31330 conn=wye bus1=p3ulv31330.1.2.3 kV=0.48 Vminpu=0.8 Vmaxpu=1.2 model=1 kW=50.2805 kvar=16.526401150445828 Phases=3

New Load.load_p3ulv31331 conn=wye bus1=p3ulv31331.1.2 kV=0.2080002494301389 Vminpu=0.8 Vmaxpu=1.2 model=1 kW=10.3601 kvar=2.0982810493685604 Phases=2

New Load.load_p3ulv31332 conn=wye bus1=p3ulv31332.1.2 kV=0.2080002494301389 Vminpu=0.8 Vmaxpu=1.2 model=1 kW=6.30006 kvar=1.2792817455138652 Phases=2

New Load.load_p3ulv32146 conn=wye bus1=p3ulv32146.1.2 kV=0.2080002494301389 Vminpu=0.8 Vmaxpu=1.2 model=1 kW=5.91006 kvar=1.200088867866603 Phases=2

New Load.load_p3ulv32944 conn=wye bus1=p3ulv32944.1.2.3 kV=0.48 Vminpu=0.8 Vmaxpu=1.2 model=1 kW=44.9204 kvar=9.121476259143726 Phases=3

New Load.load_p3ulv32945 conn=wye bus1=p3ulv32945.1.2 kV=0.2080002494301389 Vminpu=0.8 Vmaxpu=1.2 model=1 kW=7.55008 kvar=1.5291541380118512 Phases=2

New Load.load_p3ulv32946 conn=wye bus1=p3ulv32946.1.2 kV=0.2080002494301389 Vminpu=0.8 Vmaxpu=1.2 model=1 kW=6.310060000000001 kvar=1.2813123321202051 Phases=2

New Load.load_p3umv16 conn=wye bus1=p3umv16.1.2.3 kV=12.47 Vminpu=0.8 Vmaxpu=1.2 model=1 kW=1271.8 kvar=258.25000459432664 Phases=3

New Load.load_p3ulv33708 conn=wye bus1=p3ulv33708.1.2 kV=0.2080002494301389 Vminpu=0.8 Vmaxpu=1.2 model=1 kW=6.100060000000001 kvar=1.2386700133870643 Phases=2

New Load.load_p3ulv33709 conn=wye bus1=p3ulv33709.1.2 kV=0.2080002494301389 Vminpu=0.8 Vmaxpu=1.2 model=1 kW=5.51006 kvar=1.1188654036130017 Phases=2

New Load.load_p3ulv34478 conn=wye bus1=p3ulv34478.1.2 kV=0.2080002494301389 Vminpu=0.8 Vmaxpu=1.2 model=1 kW=5.98006 kvar=1.2111704107187142 Phases=2

New Load.load_p3ulv34479 conn=wye bus1=p3ulv34479.1.2 kV=0.2080002494301389 Vminpu=0.8 Vmaxpu=1.2 model=1 kW=5.83006 kvar=1.180790186840056 Phases=2

New Load.load_p3ulv34480 conn=wye bus1=p3ulv34480.1.2 kV=0.2080002494301389 Vminpu=0.8 Vmaxpu=1.2 model=1 kW=5.70006 kvar=1.1604256664843182 Phases=2

New Load.load_p3ulv35281 conn=wye bus1=p3ulv35281.1.2 kV=0.2080002494301389 Vminpu=0.8 Vmaxpu=1.2 model=1 kW=9.6001 kvar=3.1588056185308395 Phases=2

New Load.load_p3ulv35282 conn=wye bus1=p3ulv35282.1.2.3 kV=0.48 Vminpu=0.8 Vmaxpu=1.2 model=1 kW=67.08069999999998 kvar=13.62131709639145 Phases=3

New Load.load_p3ulv36038 conn=wye bus1=p3ulv36038.1.2.3 kV=0.48 Vminpu=0.8 Vmaxpu=1.2 model=1 kW=164.162 kvar=33.33451584699941 Phases=3

New Load.load_p3ulv36766 conn=wye bus1=p3ulv36766.1.2 kV=0.2080002494301389 Vminpu=0.8 Vmaxpu=1.2 model=1 kW=10.5501 kvar=2.142289175554809 Phases=2

New Load.load_p3ulv36767 conn=wye bus1=p3ulv36767.1.2 kV=0.2080002494301389 Vminpu=0.8 Vmaxpu=1.2 model=1 kW=6.00006 kvar=1.2215000586741016 Phases=2

New Load.load_p3ulv37481 conn=wye bus1=p3ulv37481.1.2 kV=0.2080002494301389 Vminpu=0.8 Vmaxpu=1.2 model=1 kW=9.6401 kvar=1.957505794377865 Phases=2

New Load.load_p3ulv37482 conn=wye bus1=p3ulv37482.1.2 kV=0.2080002494301389 Vminpu=0.8 Vmaxpu=1.2 model=1 kW=16.0702 kvar=3.2631932881205756 Phases=2

New Load.load_p3ulv37483 conn=wye bus1=p3ulv37483.1.2 kV=0.2080002494301389 Vminpu=0.8 Vmaxpu=1.2 model=1 kW=6.740070000000001 kvar=1.3686295867794334 Phases=2

New Load.load_p3ulv37651 conn=wye bus1=p3ulv37651.1.2.3 kV=0.48 Vminpu=0.8 Vmaxpu=1.2 model=1 kW=78.5508 kvar=15.950420239729544 Phases=3

New Load.load_p3ulv38282 conn=wye bus1=p3ulv38282.1.2 kV=0.2080002494301389 Vminpu=0.8 Vmaxpu=1.2 model=1 kW=7.73008 kvar=1.5696596913937038 Phases=2

New Load.load_p3ulv38283 conn=wye bus1=p3ulv38283.1.2 kV=0.2080002494301389 Vminpu=0.8 Vmaxpu=1.2 model=1 kW=5.30005 kvar=1.0789911077515342 Phases=2

New Load.load_p3ulv39042 conn=wye bus1=p3ulv39042.1.2.3 kV=0.48 Vminpu=0.8 Vmaxpu=1.2 model=1 kW=105.63099999999999 kvar=21.449289381430507 Phases=3

New Load.load_p3ulv39838 conn=wye bus1=p3ulv39838.1.2 kV=0.2080002494301389 Vminpu=0.8 Vmaxpu=1.2 model=1 kW=4.18004 kvar=0.8509780077632708 Phases=2

New Load.load_p3ulv39839 conn=wye bus1=p3ulv39839.1.2 kV=0.2080002494301389 Vminpu=0.8 Vmaxpu=1.2 model=1 kW=6.24006 kvar=1.270359572425928 Phases=2

New Load.load_p3ulv39840 conn=wye bus1=p3ulv39840.1.2.3 kV=0.48 Vminpu=0.8 Vmaxpu=1.2 model=1 kW=44.8504 kvar=9.107262152899347 Phases=3

New Load.load_p3ulv40612 conn=wye bus1=p3ulv40612.1.2.3 kV=0.48 Vminpu=0.8 Vmaxpu=1.2 model=1 kW=93.8109 kvar=19.049115706870516 Phases=3

New Load.load_p3ulv40616 conn=wye bus1=p3ulv40616.1.2 kV=0.2080002494301389 Vminpu=0.8 Vmaxpu=1.2 model=1 kW=6.16006 kvar=1.2508535330251045 Phases=2

New Load.load_p3ulv40617 conn=wye bus1=p3ulv40617.1.2 kV=0.2080002494301389 Vminpu=0.8 Vmaxpu=1.2 model=1 kW=6.350060000000001 kvar=1.2894346785455655 Phases=2

New Load.load_p3ulv40618 conn=wye bus1=p3ulv40618.1.2 kV=0.2080002494301389 Vminpu=0.8 Vmaxpu=1.2 model=1 kW=8.00008 kvar=1.6202948096478251 Phases=2

New Load.load_p3ulv41411 conn=wye bus1=p3ulv41411.1.2 kV=0.2080002494301389 Vminpu=0.8 Vmaxpu=1.2 model=1 kW=7.21007 kvar=1.47159529527446 Phases=2

New Load.load_p3ulv41412 conn=wye bus1=p3ulv41412.1.2 kV=0.2080002494301389 Vminpu=0.8 Vmaxpu=1.2 model=1 kW=10.4001 kvar=2.111830376459708 Phases=2

New Load.load_p3ulv41828 conn=wye bus1=p3ulv41828.1.2.3 kV=0.48 Vminpu=0.8 Vmaxpu=1.2 model=1 kW=32.490300000000005 kvar=6.59743680159699 Phases=3

New Load.load_p3ulv42195 conn=wye bus1=p3ulv42195.1.2 kV=0.2080002494301389 Vminpu=0.8 Vmaxpu=1.2 model=1 kW=9.33009 kvar=1.8994319194199139 Phases=2

New Load.load_p3ulv42196 conn=wye bus1=p3ulv42196.1.2 kV=0.2080002494301389 Vminpu=0.8 Vmaxpu=1.2 model=1 kW=5.70006 kvar=1.1604256664843182 Phases=2

New Load.load_p3ulv42197 conn=wye bus1=p3ulv42197.1.2 kV=0.2080002494301389 Vminpu=0.8 Vmaxpu=1.2 model=1 kW=5.57006 kvar=1.131048923251042 Phases=2

New Load.load_p3ulv42198 conn=wye bus1=p3ulv42198.1.2 kV=0.2080002494301389 Vminpu=0.8 Vmaxpu=1.2 model=1 kW=2.94003 kvar=0.6000682817178988 Phases=2

New Load.load_p3ulv42967 conn=wye bus1=p3ulv42967.1.2 kV=0.2080002494301389 Vminpu=0.8 Vmaxpu=1.2 model=1 kW=5.600060000000001 kvar=1.1400675357543906 Phases=2

New Load.load_p3ulv43388 conn=wye bus1=p3ulv43388.1.2 kV=0.2080002494301389 Vminpu=0.8 Vmaxpu=1.2 model=1 kW=3.9600400000000002 kvar=0.7999668632932473 Phases=2

New Load.load_p3ulv43740 conn=wye bus1=p3ulv43740.1.2 kV=0.2080002494301389 Vminpu=0.8 Vmaxpu=1.2 model=1 kW=7.19007 kvar=1.4600059840647355 Phases=2

New Load.load_p3ulv43741 conn=wye bus1=p3ulv43741.1.2 kV=0.2080002494301389 Vminpu=0.8 Vmaxpu=1.2 model=1 kW=5.43005 kvar=1.0997742311487098 Phases=2

New Load.load_p3ulv44592 conn=wye bus1=p3ulv44592.1.2 kV=0.2080002494301389 Vminpu=0.8 Vmaxpu=1.2 model=1 kW=5.890060000000001 kvar=1.199106114871181 Phases=2

New Load.load_p3ulv45380 conn=wye bus1=p3ulv45380.1.2 kV=0.2080002494301389 Vminpu=0.8 Vmaxpu=1.2 model=1 kW=6.01006 kvar=1.2203947339300039 Phases=2

New Load.load_p3ulv45381 conn=wye bus1=p3ulv45381.1.2 kV=0.2080002494301389 Vminpu=0.8 Vmaxpu=1.2 model=1 kW=5.86006 kvar=1.1899359348349032 Phases=2

New Load.load_p3ulv45382 conn=wye bus1=p3ulv45382.1.2 kV=0.2080002494301389 Vminpu=0.8 Vmaxpu=1.2 model=1 kW=5.43005 kvar=1.0997742311487098 Phases=2

New Load.load_p3ulv45383 conn=wye bus1=p3ulv45383.1.2 kV=0.2080002494301389 Vminpu=0.8 Vmaxpu=1.2 model=1 kW=6.07006 kvar=1.2293985450459088 Phases=2

New Load.load_p3ulv45782 conn=wye bus1=p3ulv45782.1.2 kV=0.2080002494301389 Vminpu=0.8 Vmaxpu=1.2 model=1 kW=5.33005 kvar=1.0795207485629381 Phases=2

New Load.load_p3ulv45783 conn=wye bus1=p3ulv45783.1.2.3 kV=0.48 Vminpu=0.8 Vmaxpu=1.2 model=1 kW=74.4207 kvar=15.111767665445043 Phases=3

New Load.load_p3ulv46158 conn=wye bus1=p3ulv46158.1.2 kV=0.2080002494301389 Vminpu=0.8 Vmaxpu=1.2 model=1 kW=9.06009 kvar=1.839729740623536 Phases=2

New Load.load_p3ulv46927 conn=wye bus1=p3ulv46927.1.2.3 kV=0.48 Vminpu=0.8 Vmaxpu=1.2 model=1 kW=134.671 kvar=44.264217128542676 Phases=3

New Load.load_p3ulv46930 conn=wye bus1=p3ulv46930.1.2 kV=0.2080002494301389 Vminpu=0.8 Vmaxpu=1.2 model=1 kW=5.15005 kvar=1.040360537848958 Phases=2

New Load.load_p3ulv46931 conn=wye bus1=p3ulv46931.1.2 kV=0.2080002494301389 Vminpu=0.8 Vmaxpu=1.2 model=1 kW=6.25006 kvar=1.269128812482165 Phases=2

New Load.load_p3ulv47710 conn=wye bus1=p3ulv47710.1.2 kV=0.2080002494301389 Vminpu=0.8 Vmaxpu=1.2 model=1 kW=14.510100000000001 kvar=2.9464014716654656 Phases=2

New Load.load_p3ulv47711 conn=wye bus1=p3ulv47711.1.2 kV=0.2080002494301389 Vminpu=0.8 Vmaxpu=1.2 model=1 kW=6.530070000000001 kvar=1.3294001873557917 Phases=2

New Load.load_p3ulv47712 conn=wye bus1=p3ulv47712.1.2 kV=0.2080002494301389 Vminpu=0.8 Vmaxpu=1.2 model=1 kW=5.30005 kvar=1.0789911077515342 Phases=2

New Load.load_p3ulv49170 conn=wye bus1=p3ulv49170.1.2 kV=0.2080002494301389 Vminpu=0.8 Vmaxpu=1.2 model=1 kW=5.00005 kvar=1.0205240803677447 Phases=2

New Load.load_p3ulv49171 conn=wye bus1=p3ulv49171.1.2 kV=0.2080002494301389 Vminpu=0.8 Vmaxpu=1.2 model=1 kW=3.80004 kvar=0.7696404396523686 Phases=2

New Load.load_p3ulv49172 conn=wye bus1=p3ulv49172.1.2 kV=0.2080002494301389 Vminpu=0.8 Vmaxpu=1.2 model=1 kW=6.47006 kvar=1.3104124753889972 Phases=2

New Load.load_p3ulv49173 conn=wye bus1=p3ulv49173.1.2 kV=0.2080002494301389 Vminpu=0.8 Vmaxpu=1.2 model=1 kW=6.47006 kvar=1.3104124753889972 Phases=2

New Load.load_p3ulv49174 conn=wye bus1=p3ulv49174.1.2 kV=0.2080002494301389 Vminpu=0.8 Vmaxpu=1.2 model=1 kW=5.32005 kvar=1.0802822275059345 Phases=2

New Load.load_p3ulv49175 conn=wye bus1=p3ulv49175.1.2 kV=0.2080002494301389 Vminpu=0.8 Vmaxpu=1.2 model=1 kW=5.12005 kvar=1.0396704953791336 Phases=2

New Load.load_p3ulv49604 conn=wye bus1=p3ulv49604.1.2 kV=0.2080002494301389 Vminpu=0.8 Vmaxpu=1.2 model=1 kW=4.10004 kvar=0.8304008874096844 Phases=2

New Load.load_p3ulv49949 conn=wye bus1=p3ulv49949.1.2 kV=0.2080002494301389 Vminpu=0.8 Vmaxpu=1.2 model=1 kW=4.41004 kvar=0.900101402062973 Phases=2

New Load.load_p3ulv49950 conn=wye bus1=p3ulv49950.1.2 kV=0.2080002494301389 Vminpu=0.8 Vmaxpu=1.2 model=1 kW=9.8601 kvar=2.002178699717345 Phases=2

New Load.load_p3ulv49951 conn=wye bus1=p3ulv49951.1.2 kV=0.2080002494301389 Vminpu=0.8 Vmaxpu=1.2 model=1 kW=5.71006 kvar=1.1594771357398026 Phases=2

New Load.load_p3ulv49954 conn=wye bus1=p3ulv49954.1.2 kV=0.2080002494301389 Vminpu=0.8 Vmaxpu=1.2 model=1 kW=6.50007 kvar=1.319895508227272 Phases=2

New Load.load_p3ulv51443 conn=wye bus1=p3ulv51443.1.2 kV=0.2080002494301389 Vminpu=0.8 Vmaxpu=1.2 model=1 kW=7.5000800000000005 kvar=1.5190273967189654 Phases=2

New Load.load_p3ulv51444 conn=wye bus1=p3ulv51444.1.2 kV=0.2080002494301389 Vminpu=0.8 Vmaxpu=1.2 model=1 kW=5.29005 kvar=1.079713885131026 Phases=2

New Load.load_p3ulv51859 conn=wye bus1=p3ulv51859.1.2.3 kV=0.48 Vminpu=0.8 Vmaxpu=1.2 model=1 kW=31.3103 kvar=6.357827582048865 Phases=3

New Load.load_p3ulv53021 conn=wye bus1=p3ulv53021.1.2 kV=0.2080002494301389 Vminpu=0.8 Vmaxpu=1.2 model=1 kW=11.1401 kvar=2.2620937853288714 Phases=2

New Load.load_p3ulv53022 conn=wye bus1=p3ulv53022.1.2 kV=0.2080002494301389 Vminpu=0.8 Vmaxpu=1.2 model=1 kW=5.76006 kvar=1.1696300687715029 Phases=2

New Load.load_p3ulv53172 conn=wye bus1=p3ulv53172.1.2 kV=0.2080002494301389 Vminpu=0.8 Vmaxpu=1.2 model=1 kW=6.05006 kvar=1.2285170803553642 Phases=2

New Load.load_p3ulv53173 conn=wye bus1=p3ulv53173.1.2 kV=0.2080002494301389 Vminpu=0.8 Vmaxpu=1.2 model=1 kW=7.54008 kvar=1.531078545873243 Phases=2

New Load.load_p3ulv53781 conn=wye bus1=p3ulv53781.1.2 kV=0.2080002494301389 Vminpu=0.8 Vmaxpu=1.2 model=1 kW=11.2301 kvar=2.2803690647859316 Phases=2

New Load.load_p3ulv53782 conn=wye bus1=p3ulv53782.1.2 kV=0.2080002494301389 Vminpu=0.8 Vmaxpu=1.2 model=1 kW=7.55008 kvar=1.5291541380118512 Phases=2

New Load.load_p3ulv53783 conn=wye bus1=p3ulv53783.1.2 kV=0.2080002494301389 Vminpu=0.8 Vmaxpu=1.2 model=1 kW=5.55006 kvar=1.1298884703894267 Phases=2

New Load.load_p3ulv54559 conn=wye bus1=p3ulv54559.1.2 kV=0.2080002494301389 Vminpu=0.8 Vmaxpu=1.2 model=1 kW=14.3501 kvar=2.906395004540861 Phases=2

New Load.load_p3ulv54560 conn=wye bus1=p3ulv54560.1.2 kV=0.2080002494301389 Vminpu=0.8 Vmaxpu=1.2 model=1 kW=6.67007 kvar=1.3509214659087996 Phases=2

New Load.load_p3ulv54561 conn=wye bus1=p3ulv54561.1.2 kV=0.2080002494301389 Vminpu=0.8 Vmaxpu=1.2 model=1 kW=6.05006 kvar=1.2285170803553642 Phases=2

New Load.load_p3ulv54562 conn=wye bus1=p3ulv54562.1.2 kV=0.2080002494301389 Vminpu=0.8 Vmaxpu=1.2 model=1 kW=5.94006 kvar=1.2092851802361448 Phases=2

New Load.load_p3ulv54563 conn=wye bus1=p3ulv54563.1.2 kV=0.2080002494301389 Vminpu=0.8 Vmaxpu=1.2 model=1 kW=5.90006 kvar=1.2011419279441737 Phases=2

New Load.load_p3ulv55317 conn=wye bus1=p3ulv55317.1.2 kV=0.2080002494301389 Vminpu=0.8 Vmaxpu=1.2 model=1 kW=12.2901 kvar=2.489173263273959 Phases=2

New Load.load_p3ulv55318 conn=wye bus1=p3ulv16604.1.2 kV=0.2080002494301389 Vminpu=0.8 Vmaxpu=1.2 model=1 kW=15.6602 kvar=3.179939237260634 Phases=2

New Load.load_p3ulv55319 conn=wye bus1=p3ulv55319.1.2 kV=0.2080002494301389 Vminpu=0.8 Vmaxpu=1.2 model=1 kW=5.84006 kvar=1.1889270495062174 Phases=2

New Load.load_p3ulv55320 conn=wye bus1=p3ulv55320.1.2 kV=0.2080002494301389 Vminpu=0.8 Vmaxpu=1.2 model=1 kW=7.320070000000001 kvar=1.4902294201222208 Phases=2

New Load.load_p3ulv55321 conn=wye bus1=p3ulv55321.1.2 kV=0.2080002494301389 Vminpu=0.8 Vmaxpu=1.2 model=1 kW=5.87006 kvar=1.1888915798743651 Phases=2

New Load.load_p3ulv56073 conn=wye bus1=p3ulv56073.1.2 kV=0.2080002494301389 Vminpu=0.8 Vmaxpu=1.2 model=1 kW=9.30009 kvar=1.888463819175697 Phases=2

New Load.load_p3ulv56074 conn=wye bus1=p3ulv56074.1.2 kV=0.2080002494301389 Vminpu=0.8 Vmaxpu=1.2 model=1 kW=6.30006 kvar=1.2792817455138652 Phases=2

New Load.load_p3ulv56810 conn=wye bus1=p3ulv56810.1.2 kV=0.2080002494301389 Vminpu=0.8 Vmaxpu=1.2 model=1 kW=6.990070000000001 kvar=1.4193942519379346 Phases=2

New Load.load_p3ulv56811 conn=wye bus1=p3ulv56811.1.2 kV=0.2080002494301389 Vminpu=0.8 Vmaxpu=1.2 model=1 kW=6.29006 kvar=1.280538637790892 Phases=2

New Load.load_p3ulv56812 conn=wye bus1=p3ulv56812.1.2 kV=0.2080002494301389 Vminpu=0.8 Vmaxpu=1.2 model=1 kW=6.54007 kvar=1.3314360004287842 Phases=2

New Load.load_p3ulv56813 conn=wye bus1=p3ulv56813.1.2 kV=0.2080002494301389 Vminpu=0.8 Vmaxpu=1.2 model=1 kW=6.62007 kvar=1.3407947246159133 Phases=2

New Load.load_p3ulv56982 conn=wye bus1=p3ulv56982.1.2 kV=0.2080002494301389 Vminpu=0.8 Vmaxpu=1.2 model=1 kW=6.22006 kvar=1.2597787689245672 Phases=2

New Load.load_p3ulv57609 conn=wye bus1=p3ulv57609.1.2 kV=0.2080002494301389 Vminpu=0.8 Vmaxpu=1.2 model=1 kW=13.3801 kvar=2.7169451851490414 Phases=2

New Load.load_p3ulv57610 conn=wye bus1=p3ulv57610.1.2 kV=0.2080002494301389 Vminpu=0.8 Vmaxpu=1.2 model=1 kW=6.67007 kvar=1.3509214659087996 Phases=2

New Load.load_p3ulv57611 conn=wye bus1=p3ulv57611.1.2 kV=0.2080002494301389 Vminpu=0.8 Vmaxpu=1.2 model=1 kW=7.59008 kvar=1.5412314789049433 Phases=2

New Load.load_p3ulv57612 conn=wye bus1=p3ulv57612.1.2 kV=0.2080002494301389 Vminpu=0.8 Vmaxpu=1.2 model=1 kW=5.87006 kvar=1.1888915798743651 Phases=2

New Load.load_p3ulv58031 conn=wye bus1=p3ulv58031.1.2.3 kV=0.48 Vminpu=0.8 Vmaxpu=1.2 model=1 kW=32.5803 kvar=6.615712081054051 Phases=3

New Load.load_p3ulv58378 conn=wye bus1=p3ulv58378.1.2 kV=0.2080002494301389 Vminpu=0.8 Vmaxpu=1.2 model=1 kW=8.28008 kvar=1.6813419547424064 Phases=2

New Load.load_p3ulv58379 conn=wye bus1=p3ulv58379.1.2 kV=0.2080002494301389 Vminpu=0.8 Vmaxpu=1.2 model=1 kW=5.68006 kvar=1.1504099629613984 Phases=2

New Load.load_p3ulv58817 conn=wye bus1=p3ulv58817.1.2 kV=0.2080002494301389 Vminpu=0.8 Vmaxpu=1.2 model=1 kW=3.40003 kvar=0.6904055379154336 Phases=2

New Load.load_p3ulv59145 conn=wye bus1=p3ulv59145.1.2 kV=0.2080002494301389 Vminpu=0.8 Vmaxpu=1.2 model=1 kW=8.05008 kvar=1.6304215509407107 Phases=2

New Load.load_p3ulv59146 conn=wye bus1=p3ulv59146.1.2 kV=0.2080002494301389 Vminpu=0.8 Vmaxpu=1.2 model=1 kW=9.510100000000001 kvar=1.9311081684954443 Phases=2

New Load.load_p3ulv59842 conn=wye bus1=p3ulv59842.1.2 kV=0.2080002494301389 Vminpu=0.8 Vmaxpu=1.2 model=1 kW=11.1601 kvar=2.2719877475906642 Phases=2

New Load.load_p3ulv60651 conn=wye bus1=p3ulv60651.1.2 kV=0.2080002494301389 Vminpu=0.8 Vmaxpu=1.2 model=1 kW=7.5000800000000005 kvar=1.5190273967189654 Phases=2

New Load.load_p3ulv60652 conn=wye bus1=p3ulv60652.1.2 kV=0.2080002494301389 Vminpu=0.8 Vmaxpu=1.2 model=1 kW=5.61006 kvar=1.1391712696764018 Phases=2
