New Line.l(r:p2uhs3_69-p2uts1_69)p2ud3p2ud23 Units=km Length=1.2722 bus1=p2uhs3_69-p2uts1_69xx.1.2.3 bus2=p2uhs3_69-p2uts1_69x.1.2.3 switch=n enabled=y phases=3 Linecode=3P_UG_AL_1000mcm_69_69_0_3_3_3_3

New Line.l(r:p2uhs3_69-p2uts1_69)p2ud3p2ud23p2ud13 Units=km Length=1.2722 bus1=p2uhs3_69-p2uts1_69x_px_p.1.2.3 bus2=p2uhs3_69-p2uts1_69x_p.1.2.3 switch=n enabled=y phases=3 Linecode=3P_UG_AL_1000mcm_69_69_0_3_3_3_3

New Line.l(r:p2uhs3_69-p2uts1_69)p2ud3p2ud23p2ud23 Units=km Length=1.2722 bus1=p2uhs3_69-p2uts1_69x_px_p.1.2.3 bus2=p2uhs3_69-p2uts1_69x_p.1.2.3 switch=n enabled=y phases=3 Linecode=3P_UG_AL_1000mcm_69_69_0_3_3_3_3

New Line.l(r:p2uhs3_69-p2uts1_69)p2ud3p2ud23p2ud33 Units=km Length=1.2722 bus1=p2uhs3_69-p2uts1_69x_px_p.1.2.3 bus2=p2uhs3_69-p2uts1_69x_p.1.2.3 switch=n enabled=y phases=3 Linecode=3P_UG_AL_1000mcm_69_69_0_3_3_3_3

New Line.l(r:p2uhs13_69-p2uts0_69)_s0 Units=km Length=0.312196 bus1=p2uhs13_69-p2uts0_69xxx.1.2.3 bus2=p2uhs13_69-p2uts0_69xx.1.2.3 switch=n enabled=y phases=3 Linecode=3P_OH_AL_ACSR_477kcmil_Hawk_69_0_3_3_3_3

New Line.l(r:p2uhs13_69-p2uts0_69)_s1 Units=km Length=10.5934 bus1=p2uhs13_69-p2uts0_69xx.1.2.3 bus2=p2uhs13_69-p2uts0_69x.1.2.3 switch=n enabled=y phases=3 Linecode=3P_OH_AL_ACSR_477kcmil_Hawk_69_0_3_3_3_3

New Line.l(r:p2uhs13_69-p2uhs1_69)_s0 Units=km Length=0.152585 bus1=p2uhs13_69-p2uhs1_69x.1.2.3 bus2=p2uhs13_69-p2uhs1_69xx.1.2.3 switch=n enabled=y phases=3 Linecode=3P_OH_AL_ACSR_477kcmil_Hawk_69_0_3_3_3_3

New Line.l(r:p2uhs13_69-p2uhs1_69)_s1 Units=km Length=8.23775 bus1=p2uhs13_69-p2uhs1_69xx.1.2.3 bus2=p2uhs13_69-p2uhs1_69xxx.1.2.3 switch=n enabled=y phases=3 Linecode=3P_OH_AL_ACSR_477kcmil_Hawk_69_0_3_3_3_3

New Line.l(r:p2uhs0_69-p2uhs7_69) Units=km Length=7.66368 bus1=p2uhs0_69-p2uhs7_69x.1.2.3 bus2=p2uhs0_69-p2uhs7_69xx.1.2.3 switch=n enabled=y phases=3 Linecode=3P_OH_AL_ACSR_477kcmil_Hawk_69_0_3_3_3_3

New Line.l(r:p2uhs11_69-p2uts0_69)_s0 Units=km Length=2.08021 bus1=p2uhs11_69-p2uts0_69xxx.1.2.3 bus2=p2uhs11_69-p2uts0_69xx.1.2.3 switch=n enabled=y phases=3 Linecode=3P_OH_AL_ACSR_477kcmil_Hawk_69_0_3_3_3_3

New Line.l(r:p2uhs11_69-p2uts0_69)_s1 Units=km Length=4.59548 bus1=p2uhs11_69-p2uts0_69xx.1.2.3 bus2=p2uhs11_69-p2uts0_69x.1.2.3 switch=n enabled=y phases=3 Linecode=3P_OH_AL_ACSR_477kcmil_Hawk_69_0_3_3_3_3

New Line.l(r:p2uhs1_69-p2uts0_69) Units=km Length=6.35557 bus1=p2uhs1_69-p2uts0_69xx.1.2.3 bus2=p2uhs1_69-p2uts0_69x.1.2.3 switch=n enabled=y phases=3 Linecode=3P_OH_AL_ACSR_477kcmil_Hawk_69_0_3_3_3_3

New Line.l(r:p2uhs2_69-p2uhs6_69) Units=km Length=6.327950000000001 bus1=p2uhs2_69-p2uhs6_69x.1.2.3 bus2=p2uhs2_69-p2uhs6_69xx.1.2.3 switch=n enabled=y phases=3 Linecode=3P_OH_AL_ACSR_477kcmil_Hawk_69_0_3_3_3_3

New Line.l(r:p2uhs8_69-p2uts0_69)_s0 Units=km Length=2.10186 bus1=p2uhs8_69-p2uts0_69xxx.1.2.3 bus2=p2uhs8_69-p2uts0_69xx.1.2.3 switch=n enabled=y phases=3 Linecode=3P_OH_AL_ACSR_477kcmil_Hawk_69_0_3_3_3_3

New Line.l(r:p2uhs8_69-p2uts0_69)_s1 Units=km Length=4.200820000000001 bus1=p2uhs8_69-p2uts0_69xx.1.2.3 bus2=p2uhs8_69-p2uts0_69x.1.2.3 switch=n enabled=y phases=3 Linecode=3P_OH_AL_ACSR_477kcmil_Hawk_69_0_3_3_3_3

New Line.l(r:p2uhs11_69-p2uhs6_69) Units=km Length=6.12536 bus1=p2uhs11_69-p2uhs6_69x.1.2.3 bus2=p2uhs11_69-p2uhs6_69xx.1.2.3 switch=n enabled=y phases=3 Linecode=3P_OH_AL_ACSR_477kcmil_Hawk_69_0_3_3_3_3

New Line.l(r:p2uhs2_69-p2uhs5_69) Units=km Length=6.04966 bus1=p2uhs2_69-p2uhs5_69xx.1.2.3 bus2=p2uhs2_69-p2uhs5_69x.1.2.3 switch=n enabled=y phases=3 Linecode=3P_OH_AL_ACSR_477kcmil_Hawk_69_0_3_3_3_3

New Line.l(r:p2uhs10_69-p2uhs4_69) Units=km Length=5.22677 bus1=p2uhs10_69-p2uhs4_69xx.1.2.3 bus2=p2uhs10_69-p2uhs4_69x.1.2.3 switch=n enabled=y phases=3 Linecode=3P_OH_AL_ACSR_477kcmil_Hawk_69_0_3_3_3_3

New Line.l(r:p2uhs4_69-p2uts1_69)_s0 Units=km Length=1.64626 bus1=p2uhs4_69-p2uts1_69xxx.1.2.3 bus2=p2uhs4_69-p2uts1_69xx.1.2.3 switch=n enabled=y phases=3 Linecode=3P_OH_AL_ACSR_477kcmil_Hawk_69_0_3_3_3_3

New Line.l(r:p2uhs4_69-p2uts1_69)_s1 Units=km Length=2.74794 bus1=p2uhs4_69-p2uts1_69xx.1.2.3 bus2=p2uhs4_69-p2uts1_69x.1.2.3 switch=n enabled=y phases=3 Linecode=3P_OH_AL_ACSR_477kcmil_Hawk_69_0_3_3_3_3

New Line.l(r:p2uhs3_69-p2uhs5_69) Units=km Length=4.24161 bus1=p2uhs3_69-p2uhs5_69x.1.2.3 bus2=p2uhs3_69-p2uhs5_69xx.1.2.3 switch=n enabled=y phases=3 Linecode=3P_UG_AL_1000mcm_69_69_0_3_3_3_3

New Line.l(r:p2uhs0_69-p2uts0_69) Units=km Length=3.8469800000000003 bus1=p2uhs0_69-p2uts0_69xx.1.2.3 bus2=p2uhs0_69-p2uts0_69x.1.2.3 switch=n enabled=y phases=3 Linecode=3P_OH_AL_ACSR_477kcmil_Hawk_69_0_3_3_3_3

New Line.l(r:p2uhs0_69-p2uhs12_69)_s0 Units=km Length=2.38004 bus1=p2uhs0_69-p2uhs12_69x.1.2.3 bus2=p2uhs0_69-p2uhs12_69xx.1.2.3 switch=n enabled=y phases=3 Linecode=3P_OH_AL_ACSR_477kcmil_Hawk_69_0_3_3_3_3

New Line.l(r:p2uhs0_69-p2uhs12_69)_s1 Units=km Length=0.9368930000000001 bus1=p2uhs0_69-p2uhs12_69xx.1.2.3 bus2=p2uhs0_69-p2uhs12_69xxx.1.2.3 switch=n enabled=y phases=3 Linecode=3P_OH_AL_ACSR_477kcmil_Hawk_69_0_3_3_3_3

New Line.l(r:p2uhs9_69-p2uts1_69) Units=km Length=3.28342 bus1=p2uhs9_69-p2uts1_69xx.1.2.3 bus2=p2uhs9_69-p2uts1_69x.1.2.3 switch=n enabled=y phases=3 Linecode=3P_OH_AL_ACSR_477kcmil_Hawk_69_0_3_3_3_3

New Line.breaker(r:p2uts0_69-st_mat)p2u_45392 Units=km Length=0.001 bus1=st_mat.1.2.3 bus2=p2uts0_69-st_matxx.1.2.3 switch=y enabled=y phases=3 Linecode=breaker_3_3_3_3

New Line.breaker(r:p2uts0_69-st_mat)p2u_45393 Units=km Length=0.001 bus1=p2uts0_69-st_matx.1.2.3 bus2=p2uts0_69.1.2.3 switch=y enabled=y phases=3 Linecode=breaker_3_3_3_3

New Line.breaker(r:p2uts1_69-st_mat)p2u_45394 Units=km Length=0.001 bus1=st_mat.1.2.3 bus2=p2uts1_69-st_matxx.1.2.3 switch=y enabled=y phases=3 Linecode=breaker_3_4_3_3_3

New Line.breaker(r:p2uts1_69-st_mat)p2u_45395 Units=km Length=0.001 bus1=p2uts1_69-st_matx.1.2.3 bus2=p2uts1_69.1.2.3 switch=y enabled=y phases=3 Linecode=breaker_3_4_3_3_3

New Line.breaker(r:p2uhs3_69-p2uts1_69)p2u_45422p2ud3p2ud23 Units=km Length=0.001 bus1=p2uts1_69.1.2.3 bus2=p2uhs3_69-p2uts1_69xx.1.2.3 switch=y enabled=y phases=3 Linecode=breaker_3_4_3_3_3

New Line.breaker(r:p2uhs3_69-p2uts1_69)p2u_45423p2ud3p2ud23 Units=km Length=0.001 bus1=p2uhs3_69-p2uts1_69x.1.2.3 bus2=p2uhs3_69.1.2.3 switch=y enabled=y phases=3 Linecode=breaker_3_4_3_2_3_3

New Line.breaker(r:p2uhs3_69-p2uts1_69)p2u_45422p2ud3p2ud23p2ud13 Units=km Length=0.001 bus1=p2uts1_69.1.2.3 bus2=p2uhs3_69-p2uts1_69x_px_p.1.2.3 switch=y enabled=y phases=3 Linecode=breaker_3_4_3_3_3

New Line.breaker(r:p2uhs3_69-p2uts1_69)p2u_45423p2ud3p2ud23p2ud13 Units=km Length=0.001 bus1=p2uhs3_69-p2uts1_69x_p.1.2.3 bus2=p2uhs3_69.1.2.3 switch=y enabled=y phases=3 Linecode=breaker_3_4_3_2_3_2_3

New Line.breaker(r:p2uhs3_69-p2uts1_69)p2u_45422p2ud3p2ud23p2ud23 Units=km Length=0.001 bus1=p2uts1_69.1.2.3 bus2=p2uhs3_69-p2uts1_69x_px_p.1.2.3 switch=y enabled=y phases=3 Linecode=breaker_3_4_3_3_3

New Line.breaker(r:p2uhs3_69-p2uts1_69)p2u_45423p2ud3p2ud23p2ud23 Units=km Length=0.001 bus1=p2uhs3_69-p2uts1_69x_p.1.2.3 bus2=p2uhs3_69.1.2.3 switch=y enabled=y phases=3 Linecode=breaker_3_4_3_2_3_3

New Line.breaker(r:p2uhs3_69-p2uts1_69)p2u_45422p2ud3p2ud23p2ud33 Units=km Length=0.001 bus1=p2uts1_69.1.2.3 bus2=p2uhs3_69-p2uts1_69x_px_p.1.2.3 switch=y enabled=y phases=3 Linecode=breaker_3_4_3_3_3

New Line.breaker(r:p2uhs3_69-p2uts1_69)p2u_45423p2ud3p2ud23p2ud33 Units=km Length=0.001 bus1=p2uhs3_69-p2uts1_69x_p.1.2.3 bus2=p2uhs3_69.1.2.3 switch=y enabled=y phases=3 Linecode=breaker_3_4_3_2_3_3

New Line.breaker(r:p2uhs13_69-p2uts0_69)p2u_45428 Units=km Length=0.001 bus1=p2uts0_69.1.2.3 bus2=p2uhs13_69-p2uts0_69xxx.1.2.3 switch=y enabled=y phases=3 Linecode=breaker_3_3_3_3

New Line.breaker(r:p2uhs13_69-p2uts0_69)p2u_45429 Units=km Length=0.001 bus1=p2uhs13_69-p2uts0_69x.1.2.3 bus2=p2uhs13_69.1.2.3 switch=y enabled=y phases=3 Linecode=breaker_3_3_3_3

New Line.breaker(r:p2uhs13_69-p2uhs1_69)p2u_45430 Units=km Length=0.001 bus1=p2uhs13_69.1.2.3 bus2=p2uhs13_69-p2uhs1_69x.1.2.3 switch=y enabled=y phases=3 Linecode=breaker_3_3_3_3

New Line.breaker(r:p2uhs13_69-p2uhs1_69)p2u_45431 Units=km Length=0.001 bus1=p2uhs13_69-p2uhs1_69xxx.1.2.3 bus2=p2uhs1_69.1.2.3 switch=y enabled=y phases=3 Linecode=breaker_3_3_3_3

New Line.breaker(r:p2uhs0_69-p2uhs7_69)p2u_45432 Units=km Length=0.001 bus1=p2uhs0_69.1.2.3 bus2=p2uhs0_69-p2uhs7_69x.1.2.3 switch=y enabled=y phases=3 Linecode=breaker_3_3_3_3

New Line.breaker(r:p2uhs0_69-p2uhs7_69)p2u_45433 Units=km Length=0.001 bus1=p2uhs0_69-p2uhs7_69xx.1.2.3 bus2=p2uhs7_69.1.2.3 switch=y enabled=y phases=3 Linecode=breaker_3_4_3_2_3_2_3

New Line.breaker(r:p2uhs11_69-p2uts0_69)p2u_45434 Units=km Length=0.001 bus1=p2uts0_69.1.2.3 bus2=p2uhs11_69-p2uts0_69xxx.1.2.3 switch=y enabled=y phases=3 Linecode=breaker_3_3_3_3

New Line.breaker(r:p2uhs11_69-p2uts0_69)p2u_45435 Units=km Length=0.001 bus1=p2uhs11_69-p2uts0_69x.1.2.3 bus2=p2uhs11_69.1.2.3 switch=y enabled=y phases=3 Linecode=breaker_3_3_3_3

New Line.breaker(r:p2uhs1_69-p2uts0_69)p2u_45436 Units=km Length=0.001 bus1=p2uts0_69.1.2.3 bus2=p2uhs1_69-p2uts0_69xx.1.2.3 switch=y enabled=y phases=3 Linecode=breaker_3_3_3_3

New Line.breaker(r:p2uhs1_69-p2uts0_69)p2u_45437 Units=km Length=0.001 bus1=p2uhs1_69-p2uts0_69x.1.2.3 bus2=p2uhs1_69.1.2.3 switch=y enabled=y phases=3 Linecode=breaker_3_4_3_2_3_2_3_2

New Line.breaker(r:p2uhs2_69-p2uhs6_69)p2u_45438 Units=km Length=0.001 bus1=p2uhs2_69.1.2.3 bus2=p2uhs2_69-p2uhs6_69x.1.2.3 switch=y enabled=y phases=3 Linecode=breaker_3_4_3_2_3_2_3_2

New Line.breaker(r:p2uhs2_69-p2uhs6_69)p2u_45439 Units=km Length=0.001 bus1=p2uhs2_69-p2uhs6_69xx.1.2.3 bus2=p2uhs6_69.1.2.3 switch=y enabled=y phases=3 Linecode=breaker_3_3_3_3

New Line.breaker(r:p2uhs8_69-p2uts0_69)p2u_45440 Units=km Length=0.001 bus1=p2uts0_69.1.2.3 bus2=p2uhs8_69-p2uts0_69xxx.1.2.3 switch=y enabled=y phases=3 Linecode=breaker_3_3_3_3

New Line.breaker(r:p2uhs8_69-p2uts0_69)p2u_45441 Units=km Length=0.001 bus1=p2uhs8_69-p2uts0_69x.1.2.3 bus2=p2uhs8_69.1.2.3 switch=y enabled=y phases=3 Linecode=breaker_3_3_3_3

New Line.breaker(r:p2uhs11_69-p2uhs6_69)p2u_45442 Units=km Length=0.001 bus1=p2uhs11_69.1.2.3 bus2=p2uhs11_69-p2uhs6_69x.1.2.3 switch=y enabled=y phases=3 Linecode=breaker_3_4_3_2_3_2_3_2

New Line.breaker(r:p2uhs11_69-p2uhs6_69)p2u_45443 Units=km Length=0.001 bus1=p2uhs11_69-p2uhs6_69xx.1.2.3 bus2=p2uhs6_69.1.2.3 switch=y enabled=y phases=3 Linecode=breaker_3_4_3_2_3_2_3_2

New Line.breaker(r:p2uhs2_69-p2uhs5_69)p2u_45444 Units=km Length=0.001 bus1=p2uhs5_69.1.2.3 bus2=p2uhs2_69-p2uhs5_69xx.1.2.3 switch=y enabled=y phases=3 Linecode=breaker_3_4_3_2_3_3

New Line.breaker(r:p2uhs2_69-p2uhs5_69)p2u_45445 Units=km Length=0.001 bus1=p2uhs2_69-p2uhs5_69x.1.2.3 bus2=p2uhs2_69.1.2.3 switch=y enabled=y phases=3 Linecode=breaker_3_4_3_2_3_2_3_2

New Line.breaker(r:p2uhs10_69-p2uhs4_69)p2u_45446 Units=km Length=0.001 bus1=p2uhs4_69.1.2.3 bus2=p2uhs10_69-p2uhs4_69xx.1.2.3 switch=y enabled=y phases=3 Linecode=breaker_3_4_3_2_3_2_3

New Line.breaker(r:p2uhs10_69-p2uhs4_69)p2u_45447 Units=km Length=0.001 bus1=p2uhs10_69-p2uhs4_69x.1.2.3 bus2=p2uhs10_69.1.2.3 switch=y enabled=y phases=3 Linecode=breaker_3_4_3_2_3_2_3

New Line.breaker(r:p2uhs4_69-p2uts1_69)p2u_45448 Units=km Length=0.001 bus1=p2uts1_69.1.2.3 bus2=p2uhs4_69-p2uts1_69xxx.1.2.3 switch=y enabled=y phases=3 Linecode=breaker_3_3_3_3

New Line.breaker(r:p2uhs4_69-p2uts1_69)p2u_45449 Units=km Length=0.001 bus1=p2uhs4_69-p2uts1_69x.1.2.3 bus2=p2uhs4_69.1.2.3 switch=y enabled=y phases=3 Linecode=breaker_3_3_3_3

New Line.breaker(r:p2uhs3_69-p2uhs5_69)p2u_45450 Units=km Length=0.001 bus1=p2uhs3_69.1.2.3 bus2=p2uhs3_69-p2uhs5_69x.1.2.3 switch=y enabled=y phases=3 Linecode=breaker_3_4_3_2_3_3

New Line.breaker(r:p2uhs3_69-p2uhs5_69)p2u_45451 Units=km Length=0.001 bus1=p2uhs3_69-p2uhs5_69xx.1.2.3 bus2=p2uhs5_69.1.2.3 switch=y enabled=y phases=3 Linecode=breaker_3_4_3_2_3_3

New Line.breaker(r:p2uhs0_69-p2uts0_69)p2u_45452 Units=km Length=0.001 bus1=p2uts0_69.1.2.3 bus2=p2uhs0_69-p2uts0_69xx.1.2.3 switch=y enabled=y phases=3 Linecode=breaker_3_3_3_3

New Line.breaker(r:p2uhs0_69-p2uts0_69)p2u_45453 Units=km Length=0.001 bus1=p2uhs0_69-p2uts0_69x.1.2.3 bus2=p2uhs0_69.1.2.3 switch=y enabled=y phases=3 Linecode=breaker_3_4_3_2_3_2_3

New Line.breaker(r:p2uhs0_69-p2uhs12_69)p2u_45454 Units=km Length=0.001 bus1=p2uhs0_69.1.2.3 bus2=p2uhs0_69-p2uhs12_69x.1.2.3 switch=y enabled=y phases=3 Linecode=breaker_3_3_3_3

New Line.breaker(r:p2uhs0_69-p2uhs12_69)p2u_45455 Units=km Length=0.001 bus1=p2uhs0_69-p2uhs12_69xxx.1.2.3 bus2=p2uhs12_69.1.2.3 switch=y enabled=y phases=3 Linecode=breaker_3_3_3_3

New Line.breaker(r:p2uhs9_69-p2uts1_69)p2u_45456 Units=km Length=0.001 bus1=p2uts1_69.1.2.3 bus2=p2uhs9_69-p2uts1_69xx.1.2.3 switch=y enabled=y phases=3 Linecode=breaker_3_4_3_2_3_2_3

New Line.breaker(r:p2uhs9_69-p2uts1_69)p2u_45457 Units=km Length=0.001 bus1=p2uhs9_69-p2uts1_69x.1.2.3 bus2=p2uhs9_69.1.2.3 switch=y enabled=y phases=3 Linecode=breaker_3_4_3_2_3_2_3_2

