New Transformer.tr(r:p2uts0_69-st_mat) phases=3 windings=2 %loadloss=0.353885 %Noloadloss=0.0385268 normhkva=330000.0 wdg=1 conn=delta Kv=230.0 kva=300000.0 EmergHKVA=450000.0 %R=0.1769425 bus=p2uts0_69-st_matxx wdg=2 conn=delta Kv=69.0 kva=300000.0 EmergHKVA=450000.0 %R=0.1769425 bus=p2uts0_69-st_matx XHL=7.429999999999999

New Transformer.tr(r:p2uts1_69-st_mat) phases=3 windings=2 %loadloss=0.353885 %Noloadloss=0.0385268 normhkva=330000.0 wdg=1 conn=delta Kv=230.0 kva=300000.0 EmergHKVA=450000.0 %R=0.1769425 bus=p2uts1_69-st_matxx wdg=2 conn=delta Kv=69.0 kva=300000.0 EmergHKVA=450000.0 %R=0.1769425 bus=p2uts1_69-st_matx XHL=7.429999999999999

