New Line.l(r:p1rdt129lv-p1rlv133) Units=km Length=0.001 bus1=p1rdt129lv.1.2 bus2=p1rlv133.1.2 switch=n enabled=y phases=2 Linecode=1P_OH_AL_4_Periwinkle_0_416_0_2_2_2_2_2_2_2_2_2_2_2_2_2_2_2_2_2_2_2_2_2_2_2_2_2_2_2_2_2

New Line.l(r:p1rdt130lv-p1rlv134) Units=km Length=0.001 bus1=p1rdt130lv.1.2 bus2=p1rlv134.1.2 switch=n enabled=y phases=2 Linecode=1P_OH_AL_4_Periwinkle_0_416_0_2_2_2_2_2_2_2_2_2_2_2_2_2_2_2_2_2_2_2_2_2_2_2_2_2_2_2_2_2

New Line.l(r:p1rdt131lv-p1rlv135) Units=km Length=0.00246911 bus1=p1rdt131lv.1.2 bus2=p1rlv135.1.2 switch=n enabled=y phases=2 Linecode=1P_UG_AL_1/0_Brenau_0_416_0_2_2_2_2_2_2_2_2_2_2_2_2_2_2_2_2_2_2_2_2_2_2_2_2_2_2_2_2_2

New Line.l(r:p1rdt145lv-p1rlv149) Units=km Length=0.009426190000000001 bus1=p1rdt145lv.1.2 bus2=p1rlv149.1.2 switch=n enabled=y phases=2 Linecode=1P_OH_AL_2/0_Rucina_0_416_0_2_2_2_2_2_2_2_2_2_2_2_2_2_2_2_2_2_2_2_2_2_2_2_2_2_2_2_2_2

New Line.l(r:p1rdt145lv-p1rlv5023) Units=km Length=0.029780400000000002 bus1=p1rdt145lv.1.2 bus2=p1rlv5023.1.2 switch=n enabled=y phases=2 Linecode=1P_OH_AL_4/0_Zuzara_0_416_0_2_2_2_2_2_2_2_2_2_2_2_2_2_2_2_2_2_2_2_2_2_2_2_2_2_2_2_2_2

New Line.l(r:p1rdt145lv-p1rlv12515) Units=km Length=0.0258598 bus1=p1rdt145lv.1.2 bus2=p1rlv12515.1.2 switch=n enabled=y phases=2 Linecode=1P_OH_AL_2/0_Rucina_0_416_0_2_2_2_2_2_2_2_2_2_2_2_2_2_2_2_2_2_2_2_2_2_2_2_2_2_2_2_2_2

New Line.l(r:p1rdt145lv-p1rlv13149) Units=km Length=0.0174802 bus1=p1rdt145lv.1.2 bus2=p1rlv13149.1.2 switch=n enabled=y phases=2 Linecode=1P_OH_AL_2/0_Rucina_0_416_0_2_2_2_2_2_2_2_2_2_2_2_2_2_2_2_2_2_2_2_2_2_2_2_2_2_2_2_2_2

New Line.l(r:p1rdt270lv-p1rlv278) Units=km Length=0.001 bus1=p1rdt270lv.1.2 bus2=p1rlv278.1.2 switch=n enabled=y phases=2 Linecode=1P_OH_AL_4_Periwinkle_0_416_0_2_2_2_2_2_2_2_2_2_2_2_2_2_2_2_2_2_2_2_2_2_2_2_2_2_2_2_2_2

New Line.l(r:p1rdt271lv-p1rlv279) Units=km Length=0.0319205 bus1=p1rdt271lv.1.2 bus2=p1rlv279.1.2 switch=n enabled=y phases=2 Linecode=1P_OH_AL_4/0_Zuzara_0_416_0_2_2_2_2_2_2_2_2_2_2_2_2_2_2_2_2_2_2_2_2_2_2_2_2_2_2_2_2_2

New Line.l(r:p1rdt271lv-p1rlv9210) Units=km Length=0.0319205 bus1=p1rdt271lv.1.2 bus2=p1rlv9210.1.2 switch=n enabled=y phases=2 Linecode=1P_OH_AL_4/0_Zuzara_0_416_0_2_2_2_2_2_2_2_2_2_2_2_2_2_2_2_2_2_2_2_2_2_2_2_2_2_2_2_2_2

New Line.l(r:p1rdm923-p1rlv402) Units=km Length=0.0378754 bus1=p1rdm923.1.2 bus2=p1rlv402.1.2 switch=n enabled=y phases=2 Linecode=1P_OH_AL_4/0_Zuzara_0_416_0_2_2_2_2_2_2_2_2_2_2_2_2_2_2_2_2_2_2_2_2_2_2_2_2_2_2_2_2_2

New Line.l(r:p1rdm923-p1rdt393lv) Units=km Length=0.016973 bus1=p1rdt393lv.1.2 bus2=p1rdm923.1.2 switch=n enabled=y phases=2 Linecode=1P_OH_AL_2/0_Rucina_0_416_0_2_2_2_2_2_2_2_2_2_2_2_2_2_2_2_2_2_2_2_2_2_2_2_2_2_2_2_2_2

New Line.l(r:p1rdm924-p1rlv2564) Units=km Length=0.0242481 bus1=p1rdm924.1.2 bus2=p1rlv2564.1.2 switch=n enabled=y phases=2 Linecode=1P_OH_AL_2/0_Rucina_0_416_0_2_2_2_2_2_2_2_2_2_2_2_2_2_2_2_2_2_2_2_2_2_2_2_2_2_2_2_2_2

New Line.l(r:p1rdm924-p1rdt393lv) Units=km Length=0.016973 bus1=p1rdt393lv.1.2 bus2=p1rdm924.1.2 switch=n enabled=y phases=2 Linecode=1P_OH_AL_2/0_Rucina_0_416_0_2_2_2_2_2_2_2_2_2_2_2_2_2_2_2_2_2_2_2_2_2_2_2_2_2_2_2_2_2

New Line.l(r:p1rdt395lv-p1rlv404) Units=km Length=0.001 bus1=p1rdt395lv.1.2 bus2=p1rlv404.1.2 switch=n enabled=y phases=2 Linecode=1P_OH_AL_4_Periwinkle_0_416_0_2_2_2_2_2_2_2_2_2_2_2_2_2_2_2_2_2_2_2_2_2_2_2_2_2_2_2_2_2

New Line.l(r:p1rdt396lv-p1rlv405) Units=km Length=0.0157328 bus1=p1rdt396lv.1.2 bus2=p1rlv405.1.2 switch=n enabled=y phases=2 Linecode=1P_OH_AL_2/0_Rucina_0_416_0_2_2_2_2_2_2_2_2_2_2_2_2_2_2_2_2_2_2_2_2_2_2_2_2_2_2_2_2_2

New Line.l(r:p1rdt396lv-p1rlv2445) Units=km Length=0.0184895 bus1=p1rdt396lv.1.2 bus2=p1rlv2445.1.2 switch=n enabled=y phases=2 Linecode=1P_OH_AL_2/0_Rucina_0_416_0_2_2_2_2_2_2_2_2_2_2_2_2_2_2_2_2_2_2_2_2_2_2_2_2_2_2_2_2_2

New Line.l(r:p1rdm932-p1rlv3893) Units=km Length=0.0106247 bus1=p1rdm932.1.2 bus2=p1rlv3893.1.2 switch=n enabled=y phases=2 Linecode=1P_UG_AL_1/0_Brenau_0_416_0_2_2_2_2_2_2_2_2_2_2_2_2_2_2_2_2_2_2_2_2_2_2_2_2_2_2_2_2_2

New Line.l(r:p1rdm932-p1rdt396lv) Units=km Length=0.0800983 bus1=p1rdt396lv.1.2 bus2=p1rdm932.1.2 switch=n enabled=y phases=2 Linecode=1P_OH_AL_4/0_Zuzara_0_416_0_2_2_2_2_2_2_2_2_2_2_2_2_2_2_2_2_2_2_2_2_2_2_2_2_2_2_2_2_2

New Line.l(r:p1rdm933-p1rlv6934) Units=km Length=0.0157259 bus1=p1rdm933.1.2 bus2=p1rlv6934.1.2 switch=n enabled=y phases=2 Linecode=1P_OH_AL_2/0_Rucina_0_416_0_2_2_2_2_2_2_2_2_2_2_2_2_2_2_2_2_2_2_2_2_2_2_2_2_2_2_2_2_2

New Line.l(r:p1rdm933-p1rdt396lv) Units=km Length=0.0192847 bus1=p1rdt396lv.1.2 bus2=p1rdm933.1.2 switch=n enabled=y phases=2 Linecode=1P_OH_AL_2/0_Rucina_0_416_0_2_2_2_2_2_2_2_2_2_2_2_2_2_2_2_2_2_2_2_2_2_2_2_2_2_2_2_2_2

New Line.l(r:p1rdt517lv-p1rlv530) Units=km Length=0.0751951 bus1=p1rdt517lv.1.2 bus2=p1rlv530.1.2 switch=n enabled=y phases=2 Linecode=1P_OH_AL_4/0_Zuzara_0_416_0_2_2_2_2_2_2_2_2_2_2_2_2_2_2_2_2_2_2_2_2_2_2_2_2_2_2_2_2_2

New Line.l(r:p1rdt531lv-p1rlv544) Units=km Length=0.0127758 bus1=p1rdt531lv.1.2 bus2=p1rlv544.1.2 switch=n enabled=y phases=2 Linecode=1P_OH_AL_2/0_Rucina_0_416_0_2_2_2_2_2_2_2_2_2_2_2_2_2_2_2_2_2_2_2_2_2_2_2_2_2_2_2_2_2

New Line.l(r:p1rdt531lv-p1rlv8557) Units=km Length=0.0169641 bus1=p1rdt531lv.1.2 bus2=p1rlv8557.1.2 switch=n enabled=y phases=2 Linecode=1P_OH_AL_2/0_Rucina_0_416_0_2_2_2_2_2_2_2_2_2_2_2_2_2_2_2_2_2_2_2_2_2_2_2_2_2_2_2_2_2

New Line.l(r:p1rdt531lv-p1rlv12631) Units=km Length=0.00778974 bus1=p1rdt531lv.1.2 bus2=p1rlv12631.1.2 switch=n enabled=y phases=2 Linecode=1P_OH_AL_2/0_Rucina_0_416_0_2_2_2_2_2_2_2_2_2_2_2_2_2_2_2_2_2_2_2_2_2_2_2_2_2_2_2_2_2

New Line.l(r:p1rdt533lv-p1rlv546) Units=km Length=0.0422844 bus1=p1rdt533lv.1.2 bus2=p1rlv546.1.2 switch=n enabled=y phases=2 Linecode=1P_OH_AL_4/0_Zuzara_0_416_0_2_2_2_2_2_2_2_2_2_2_2_2_2_2_2_2_2_2_2_2_2_2_2_2_2_2_2_2_2

New Line.l(r:p1rdt533lv-p1rlv2452) Units=km Length=0.0422844 bus1=p1rdt533lv.1.2 bus2=p1rlv2452.1.2 switch=n enabled=y phases=2 Linecode=1P_OH_AL_4/0_Zuzara_0_416_0_2_2_2_2_2_2_2_2_2_2_2_2_2_2_2_2_2_2_2_2_2_2_2_2_2_2_2_2_2

New Line.l(r:p1rdt644lv-p1rlv666) Units=km Length=0.001 bus1=p1rdt644lv.1.2 bus2=p1rlv666.1.2 switch=n enabled=y phases=2 Linecode=1P_OH_AL_4_Periwinkle_0_416_0_2_2_2_2_2_2_2_2_2_2_2_2_2_2_2_2_2_2_2_2_2_2_2_2_2_2_2_2_2

New Line.l(r:p1rdt649lv-p1rlv671) Units=km Length=0.0399544 bus1=p1rdt649lv.1.2 bus2=p1rlv671.1.2 switch=n enabled=y phases=2 Linecode=1P_OH_AL_4/0_Zuzara_0_416_0_2_2_2_2_2_2_2_2_2_2_2_2_2_2_2_2_2_2_2_2_2_2_2_2_2_2_2_2_2

New Line.l(r:p1rdt649lv-p1rlv7904) Units=km Length=0.0399544 bus1=p1rdt649lv.1.2 bus2=p1rlv7904.1.2 switch=n enabled=y phases=2 Linecode=1P_OH_AL_4/0_Zuzara_0_416_0_2_2_2_2_2_2_2_2_2_2_2_2_2_2_2_2_2_2_2_2_2_2_2_2_2_2_2_2_2

New Line.l(r:p1rdt661lv-p1rlv684) Units=km Length=0.0416648 bus1=p1rdt661lv.1.2 bus2=p1rlv684.1.2 switch=n enabled=y phases=2 Linecode=1P_OH_AL_4/0_Zuzara_0_416_0_2_2_2_2_2_2_2_2_2_2_2_2_2_2_2_2_2_2_2_2_2_2_2_2_2_2_2_2_2

New Line.l(r:p1rdt661lv-p1rlv2315) Units=km Length=0.0907835 bus1=p1rdt661lv.1.2 bus2=p1rlv2315.1.2 switch=n enabled=y phases=2 Linecode=1P_OH_AL_4/0_Zuzara_0_416_0_2_2_2_2_2_2_2_2_2_2_2_2_2_2_2_2_2_2_2_2_2_2_2_2_2_2_2_2_2

New Line.l(r:p1rdt661lv-p1rlv4305) Units=km Length=0.0494601 bus1=p1rdt661lv.1.2 bus2=p1rlv4305.1.2 switch=n enabled=y phases=2 Linecode=1P_OH_AL_4/0_Zuzara_0_416_0_2_2_2_2_2_2_2_2_2_2_2_2_2_2_2_2_2_2_2_2_2_2_2_2_2_2_2_2_2

New Line.l(r:p1rdt917lv-p1rlv963) Units=km Length=0.0681096 bus1=p1rdt917lv.1.2 bus2=p1rlv963.1.2 switch=n enabled=y phases=2 Linecode=1P_OH_AL_4/0_Zuzara_0_416_0_2_2_2_2_2_2_2_2_2_2_2_2_2_2_2_2_2_2_2_2_2_2_2_2_2_2_2_2_2

New Line.l(r:p1rdt918lv-p1rlv964) Units=km Length=0.0298066 bus1=p1rdt918lv.1.2 bus2=p1rlv964.1.2 switch=n enabled=y phases=2 Linecode=1P_OH_AL_4/0_Zuzara_0_416_0_2_2_2_2_2_2_2_2_2_2_2_2_2_2_2_2_2_2_2_2_2_2_2_2_2_2_2_2_2

New Line.l(r:p1rdt918lv-p1rlv6066) Units=km Length=0.0273997 bus1=p1rdt918lv.1.2 bus2=p1rlv6066.1.2 switch=n enabled=y phases=2 Linecode=1P_OH_AL_4/0_Zuzara_0_416_0_2_2_2_2_2_2_2_2_2_2_2_2_2_2_2_2_2_2_2_2_2_2_2_2_2_2_2_2_2

New Line.l(r:p1rdt918lv-p1rlv13524) Units=km Length=0.0239912 bus1=p1rdt918lv.1.2 bus2=p1rlv13524.1.2 switch=n enabled=y phases=2 Linecode=1P_OH_AL_2/0_Rucina_0_416_0_2_2_2_2_2_2_2_2_2_2_2_2_2_2_2_2_2_2_2_2_2_2_2_2_2_2_2_2_2

New Line.l(r:p1rdt919lv-p1rlv965) Units=km Length=0.001 bus1=p1rdt919lv.1.2 bus2=p1rlv965.1.2 switch=n enabled=y phases=2 Linecode=1P_OH_AL_4_Periwinkle_0_416_0_2_2_2_2_2_2_2_2_2_2_2_2_2_2_2_2_2_2_2_2_2_2_2_2_2_2_2_2_2

New Line.l(r:p1rdt927lv-p1rlv973) Units=km Length=0.019052400000000004 bus1=p1rdt927lv.1.2 bus2=p1rlv973.1.2 switch=n enabled=y phases=2 Linecode=1P_OH_AL_2/0_Rucina_0_416_0_2_2_2_2_2_2_2_2_2_2_2_2_2_2_2_2_2_2_2_2_2_2_2_2_2_2_2_2_2

New Line.l(r:p1rdt927lv-p1rlv6074) Units=km Length=0.019052400000000004 bus1=p1rdt927lv.1.2 bus2=p1rlv6074.1.2 switch=n enabled=y phases=2 Linecode=1P_OH_AL_2/0_Rucina_0_416_0_2_2_2_2_2_2_2_2_2_2_2_2_2_2_2_2_2_2_2_2_2_2_2_2_2_2_2_2_2

New Line.l(r:p1rdt928lv-p1rlv974) Units=km Length=0.001 bus1=p1rdt928lv.1.2 bus2=p1rlv974.1.2 switch=n enabled=y phases=2 Linecode=1P_OH_AL_4_Periwinkle_0_416_0_2_2_2_2_2_2_2_2_2_2_2_2_2_2_2_2_2_2_2_2_2_2_2_2_2_2_2_2_2

New Line.l(r:p1rdt1041lv-p1rlv1100) Units=km Length=0.001 bus1=p1rdt1041lv.1.2 bus2=p1rlv1100.1.2 switch=n enabled=y phases=2 Linecode=1P_UG_AL_4/0_Sweetbriar_0_416_0_2_2_2_2_2_2_2_2_2_2_2_2_2_2_2_2_2_2_2_2_2_2_2_2_2_2_2_2_2

New Line.l(r:p1rdt1149lv-p1rlv1216) Units=km Length=0.001 bus1=p1rdt1149lv.1.2 bus2=p1rlv1216.1.2 switch=n enabled=y phases=2 Linecode=1P_OH_AL_4_Periwinkle_0_416_0_2_2_2_2_2_2_2_2_2_2_2_2_2_2_2_2_2_2_2_2_2_2_2_2_2_2_2_2_2

New Line.l(r:p1rdt1259lv-p1rlv1340) Units=km Length=0.0382692 bus1=p1rdt1259lv.1.2 bus2=p1rlv1340.1.2 switch=n enabled=y phases=2 Linecode=1P_OH_AL_4/0_Zuzara_0_416_0_2_2_2_2_2_2_2_2_2_2_2_2_2_2_2_2_2_2_2_2_2_2_2_2_2_2_2_2_2

New Line.l(r:p1rdt1267lv-p1rlv1348) Units=km Length=0.00567501 bus1=p1rdt1267lv.1.2 bus2=p1rlv1348.1.2 switch=n enabled=y phases=2 Linecode=1P_UG_AL_1/0_Brenau_0_416_0_2_2_2_2_2_2_2_2_2_2_2_2_2_2_2_2_2_2_2_2_2_2_2_2_2_2_2_2_2

New Line.l(r:p1rdt1393lv-p1rlv1495) Units=km Length=0.0156559 bus1=p1rdt1393lv.1.2 bus2=p1rlv1495.1.2 switch=n enabled=y phases=2 Linecode=1P_OH_AL_2/0_Rucina_0_416_0_2_2_2_2_2_2_2_2_2_2_2_2_2_2_2_2_2_2_2_2_2_2_2_2_2_2_2_2_2

New Line.l(r:p1rdt1505lv-p1rlv1624) Units=km Length=0.001 bus1=p1rdt1505lv.1.2 bus2=p1rlv1624.1.2 switch=n enabled=y phases=2 Linecode=1P_OH_AL_4_Periwinkle_0_416_0_2_2_2_2_2_2_2_2_2_2_2_2_2_2_2_2_2_2_2_2_2_2_2_2_2_2_2_2_2

New Line.l(r:p1rdt1510lv-p1rlv1629) Units=km Length=0.0253838 bus1=p1rdt1510lv.1.2 bus2=p1rlv1629.1.2 switch=n enabled=y phases=2 Linecode=1P_OH_AL_2/0_Rucina_0_416_0_2_2_2_2_2_2_2_2_2_2_2_2_2_2_2_2_2_2_2_2_2_2_2_2_2_2_2_2_2

New Line.l(r:p1rdt1510lv-p1rlv7230) Units=km Length=0.0253838 bus1=p1rdt1510lv.1.2 bus2=p1rlv7230.1.2 switch=n enabled=y phases=2 Linecode=1P_OH_AL_2/0_Rucina_0_416_0_2_2_2_2_2_2_2_2_2_2_2_2_2_2_2_2_2_2_2_2_2_2_2_2_2_2_2_2_2

New Line.l(r:p1rdt1511lv-p1rlv1630) Units=km Length=0.001 bus1=p1rdt1511lv.1.2 bus2=p1rlv1630.1.2 switch=n enabled=y phases=2 Linecode=1P_OH_AL_4_Periwinkle_0_416_0_2_2_2_2_2_2_2_2_2_2_2_2_2_2_2_2_2_2_2_2_2_2_2_2_2_2_2_2_2

New Line.l(r:p1rdt1608lv-p1rlv1747) Units=km Length=0.0499304 bus1=p1rdt1608lv.1.2 bus2=p1rlv1747.1.2 switch=n enabled=y phases=2 Linecode=1P_OH_AL_4/0_Zuzara_0_416_0_2_2_2_2_2_2_2_2_2_2_2_2_2_2_2_2_2_2_2_2_2_2_2_2_2_2_2_2_2

New Line.l(r:p1rdt1608lv-p1rlv6693) Units=km Length=0.0499304 bus1=p1rdt1608lv.1.2 bus2=p1rlv6693.1.2 switch=n enabled=y phases=2 Linecode=1P_OH_AL_4/0_Zuzara_0_416_0_2_2_2_2_2_2_2_2_2_2_2_2_2_2_2_2_2_2_2_2_2_2_2_2_2_2_2_2_2

New Line.l(r:p1rdt1610lv-p1rlv1749) Units=km Length=0.0842284 bus1=p1rdt1610lv.1.2 bus2=p1rlv1749.1.2 switch=n enabled=y phases=2 Linecode=1P_OH_AL_4/0_Zuzara_0_416_0_2_2_2_2_2_2_2_2_2_2_2_2_2_2_2_2_2_2_2_2_2_2_2_2_2_2_2_2_2

New Line.l(r:p1rdt1716lv-p1rlv1878) Units=km Length=0.0206159 bus1=p1rdt1716lv.1.2 bus2=p1rlv1878.1.2 switch=n enabled=y phases=2 Linecode=1P_OH_AL_2/0_Rucina_0_416_0_2_2_2_2_2_2_2_2_2_2_2_2_2_2_2_2_2_2_2_2_2_2_2_2_2_2_2_2_2

New Line.l(r:p1rdt1716lv-p1rlv3639) Units=km Length=0.00800258 bus1=p1rdt1716lv.1.2 bus2=p1rlv3639.1.2 switch=n enabled=y phases=2 Linecode=1P_OH_AL_2/0_Rucina_0_416_0_2_2_2_2_2_2_2_2_2_2_2_2_2_2_2_2_2_2_2_2_2_2_2_2_2_2_2_2_2

New Line.l(r:p1rdt1716lv-p1rlv13525) Units=km Length=0.0276733 bus1=p1rdt1716lv.1.2 bus2=p1rlv13525.1.2 switch=n enabled=y phases=2 Linecode=1P_OH_AL_4/0_Zuzara_0_416_0_2_2_2_2_2_2_2_2_2_2_2_2_2_2_2_2_2_2_2_2_2_2_2_2_2_2_2_2_2

New Line.l(r:p1rdt1730lv-p1rlv1893) Units=km Length=0.030738900000000003 bus1=p1rdt1730lv.1.2 bus2=p1rlv1893.1.2 switch=n enabled=y phases=2 Linecode=1P_OH_AL_4/0_Zuzara_0_416_0_2_2_2_2_2_2_2_2_2_2_2_2_2_2_2_2_2_2_2_2_2_2_2_2_2_2_2_2_2

New Line.l(r:p1rdt1730lv-p1rlv10046) Units=km Length=0.030738900000000003 bus1=p1rdt1730lv.1.2 bus2=p1rlv10046.1.2 switch=n enabled=y phases=2 Linecode=1P_OH_AL_4/0_Zuzara_0_416_0_2_2_2_2_2_2_2_2_2_2_2_2_2_2_2_2_2_2_2_2_2_2_2_2_2_2_2_2_2

New Line.l(r:p1rdt1836lv-p1rlv2025) Units=km Length=0.0426458 bus1=p1rdt1836lv.1.2 bus2=p1rlv2025.1.2 switch=n enabled=y phases=2 Linecode=1P_OH_AL_4/0_Zuzara_0_416_0_2_2_2_2_2_2_2_2_2_2_2_2_2_2_2_2_2_2_2_2_2_2_2_2_2_2_2_2_2

New Line.l(r:p1rdt1836lv-p1rlv3490) Units=km Length=0.0426458 bus1=p1rdt1836lv.1.2 bus2=p1rlv3490.1.2 switch=n enabled=y phases=2 Linecode=1P_OH_AL_4/0_Zuzara_0_416_0_2_2_2_2_2_2_2_2_2_2_2_2_2_2_2_2_2_2_2_2_2_2_2_2_2_2_2_2_2

New Line.l(r:p1rdt1837lv-p1rlv2026) Units=km Length=0.001 bus1=p1rdt1837lv.1.2 bus2=p1rlv2026.1.2 switch=n enabled=y phases=2 Linecode=1P_OH_AL_4_Periwinkle_0_416_0_2_2_2_2_2_2_2_2_2_2_2_2_2_2_2_2_2_2_2_2_2_2_2_2_2_2_2_2_2

New Line.l(r:p1rdt1945lv-p1rlv2154) Units=km Length=0.001 bus1=p1rdt1945lv.1.2 bus2=p1rlv2154.1.2 switch=n enabled=y phases=2 Linecode=1P_OH_AL_4_Periwinkle_0_416_0_2_2_2_2_2_2_2_2_2_2_2_2_2_2_2_2_2_2_2_2_2_2_2_2_2_2_2_2_2

New Line.l(r:p1rdt1946lv-p1rlv2155) Units=km Length=0.0305755 bus1=p1rdt1946lv.1.2 bus2=p1rlv2155.1.2 switch=n enabled=y phases=2 Linecode=1P_OH_AL_4/0_Zuzara_0_416_0_2_2_2_2_2_2_2_2_2_2_2_2_2_2_2_2_2_2_2_2_2_2_2_2_2_2_2_2_2

New Line.l(r:p1rdt1946lv-p1rlv8821) Units=km Length=0.0305755 bus1=p1rdt1946lv.1.2 bus2=p1rlv8821.1.2 switch=n enabled=y phases=2 Linecode=1P_OH_AL_4/0_Zuzara_0_416_0_2_2_2_2_2_2_2_2_2_2_2_2_2_2_2_2_2_2_2_2_2_2_2_2_2_2_2_2_2

New Line.l(r:p1rdm4229-p1rlv10703) Units=km Length=0.00517116 bus1=p1rdm4229.1.2 bus2=p1rlv10703.1.2 switch=n enabled=y phases=2 Linecode=1P_UG_AL_1/0_Brenau_0_416_0_2_2_2_2_2_2_2_2_2_2_2_2_2_2_2_2_2_2_2_2_2_2_2_2_2_2_2_2_2

New Line.l(r:p1rdm4228-p1rlv2156) Units=km Length=0.0759905 bus1=p1rdm4228.1.2 bus2=p1rlv2156.1.2 switch=n enabled=y phases=2 Linecode=1P_UG_AL_1/0_Brenau_0_416_0_2_2_2_2_2_2_2_2_2_2_2_2_2_2_2_2_2_2_2_2_2_2_2_2_2_2_2_2_2

New Line.l(r:p1rdm4228-p1rdm4229) Units=km Length=0.0590866 bus1=p1rdm4229.1.2 bus2=p1rdm4228.1.2 switch=n enabled=y phases=2 Linecode=1P_UG_AL_1/0_Brenau_0_416_0_2_2_2_2_2_2_2_2_2_2_2_2_2_2_2_2_2_2_2_2_2_2_2_2_2_2_2_2_2

New Line.l(r:p1rdm4229-p1rdt1947lv) Units=km Length=0.00990196 bus1=p1rdt1947lv.1.2 bus2=p1rdm4229.1.2 switch=n enabled=y phases=2 Linecode=1P_UG_AL_2/0_Converse_0_416_0_2_2_2_2_2_2_2_2_2_2_2_2_2_2_2_2_2_2_2_2_2_2_2_2_2_2_2_2_2

New Line.l(r:p1rdt2078lv-p1rlv2314) Units=km Length=0.105202 bus1=p1rdt2078lv.1.2 bus2=p1rlv2314.1.2 switch=n enabled=y phases=2 Linecode=1P_OH_AL_4/0_Zuzara_0_416_0_2_2_2_2_2_2_2_2_2_2_2_2_2_2_2_2_2_2_2_2_2_2_2_2_2_2_2_2_2

New Line.l(r:p1rdm4473-p1rlv7229) Units=km Length=0.0896015 bus1=p1rdm4473.1.2 bus2=p1rlv7229.1.2 switch=n enabled=y phases=2 Linecode=1P_OH_AL_4/0_Zuzara_0_416_0_2_2_2_2_2_2_2_2_2_2_2_2_2_2_2_2_2_2_2_2_2_2_2_2_2_2_2_2_2

New Line.l(r:p1rdm4473-p1rdt2078lv) Units=km Length=0.018133 bus1=p1rdt2078lv.1.2 bus2=p1rdm4473.1.2 switch=n enabled=y phases=2 Linecode=1P_OH_AL_2/0_Rucina_0_416_0_2_2_2_2_2_2_2_2_2_2_2_2_2_2_2_2_2_2_2_2_2_2_2_2_2_2_2_2_2

New Line.l(r:p1rdt2179lv-p1rlv2431) Units=km Length=0.05302690000000001 bus1=p1rdt2179lv.1.2 bus2=p1rlv2431.1.2 switch=n enabled=y phases=2 Linecode=1P_OH_AL_4/0_Zuzara_0_416_0_2_2_2_2_2_2_2_2_2_2_2_2_2_2_2_2_2_2_2_2_2_2_2_2_2_2_2_2_2

New Line.l(r:p1rdt2179lv-p1rlv12362) Units=km Length=0.05302690000000001 bus1=p1rdt2179lv.1.2 bus2=p1rlv12362.1.2 switch=n enabled=y phases=2 Linecode=1P_OH_AL_4/0_Zuzara_0_416_0_2_2_2_2_2_2_2_2_2_2_2_2_2_2_2_2_2_2_2_2_2_2_2_2_2_2_2_2_2

New Line.l(r:p1rdt2188lv-p1rlv2442) Units=km Length=0.001 bus1=p1rdt2188lv.1.2 bus2=p1rlv2442.1.2 switch=n enabled=y phases=2 Linecode=1P_OH_AL_4_Periwinkle_0_416_0_2_2_2_2_2_2_2_2_2_2_2_2_2_2_2_2_2_2_2_2_2_2_2_2_2_2_2_2_2

New Line.l(r:p1rdm4680-p1rlv2444) Units=km Length=0.0198809 bus1=p1rdm4680.1.2 bus2=p1rlv2444.1.2 switch=n enabled=y phases=2 Linecode=1P_OH_AL_2/0_Rucina_0_416_0_2_2_2_2_2_2_2_2_2_2_2_2_2_2_2_2_2_2_2_2_2_2_2_2_2_2_2_2_2

New Line.l(r:p1rdm4680-p1rdt2190lv) Units=km Length=0.0189403 bus1=p1rdt2190lv.1.2 bus2=p1rdm4680.1.2 switch=n enabled=y phases=2 Linecode=1P_OH_AL_2/0_Rucina_0_416_0_2_2_2_2_2_2_2_2_2_2_2_2_2_2_2_2_2_2_2_2_2_2_2_2_2_2_2_2_2

New Line.l(r:p1rdm4681-p1rlv12222) Units=km Length=0.0395964 bus1=p1rdm4681.1.2 bus2=p1rlv12222.1.2 switch=n enabled=y phases=2 Linecode=1P_OH_AL_4/0_Zuzara_0_416_0_2_2_2_2_2_2_2_2_2_2_2_2_2_2_2_2_2_2_2_2_2_2_2_2_2_2_2_2_2

New Line.l(r:p1rdm4681-p1rdt2190lv) Units=km Length=0.0189277 bus1=p1rdt2190lv.1.2 bus2=p1rdm4681.1.2 switch=n enabled=y phases=2 Linecode=1P_OH_AL_2/0_Rucina_0_416_0_2_2_2_2_2_2_2_2_2_2_2_2_2_2_2_2_2_2_2_2_2_2_2_2_2_2_2_2_2

New Line.l(r:p1rdt2277lv-p1rlv2551) Units=km Length=0.0177135 bus1=p1rdt2277lv.1.2 bus2=p1rlv2551.1.2 switch=n enabled=y phases=2 Linecode=1P_OH_AL_2/0_Rucina_0_416_0_2_2_2_2_2_2_2_2_2_2_2_2_2_2_2_2_2_2_2_2_2_2_2_2_2_2_2_2_2

New Line.l(r:p1rdt2277lv-p1rlv7761) Units=km Length=0.0177135 bus1=p1rdt2277lv.1.2 bus2=p1rlv7761.1.2 switch=n enabled=y phases=2 Linecode=1P_OH_AL_2/0_Rucina_0_416_0_2_2_2_2_2_2_2_2_2_2_2_2_2_2_2_2_2_2_2_2_2_2_2_2_2_2_2_2_2

New Line.l(r:p1rdt2285lv-p1rlv2561) Units=km Length=0.00231868 bus1=p1rdt2285lv.1.2 bus2=p1rlv2561.1.2 switch=n enabled=y phases=2 Linecode=1P_OH_AL_4_Periwinkle_0_416_0_2_2_2_2_2_2_2_2_2_2_2_2_2_2_2_2_2_2_2_2_2_2_2_2_2_2_2_2_2

New Line.l(r:p1rdt2285lv-p1rlv10830) Units=km Length=0.0202878 bus1=p1rdt2285lv.1.2 bus2=p1rlv10830.1.2 switch=n enabled=y phases=2 Linecode=1P_OH_AL_2/0_Rucina_0_416_0_2_2_2_2_2_2_2_2_2_2_2_2_2_2_2_2_2_2_2_2_2_2_2_2_2_2_2_2_2

New Line.l(r:p1rdt2285lv-p1rlv13785) Units=km Length=0.0186357 bus1=p1rdt2285lv.1.2 bus2=p1rlv13785.1.2 switch=n enabled=y phases=2 Linecode=1P_OH_AL_2/0_Rucina_0_416_0_2_2_2_2_2_2_2_2_2_2_2_2_2_2_2_2_2_2_2_2_2_2_2_2_2_2_2_2_2

New Line.l(r:p1rdt2286lv-p1rlv2562) Units=km Length=0.001 bus1=p1rdt2286lv.1.2 bus2=p1rlv2562.1.2 switch=n enabled=y phases=2 Linecode=1P_OH_AL_4_Periwinkle_0_416_0_2_2_2_2_2_2_2_2_2_2_2_2_2_2_2_2_2_2_2_2_2_2_2_2_2_2_2_2_2

New Line.l(r:p1rdt2287lv-p1rlv6432) Units=km Length=0.101076 bus1=p1rdt2287lv.1.2 bus2=p1rlv6432.1.2 switch=n enabled=y phases=2 Linecode=1P_OH_AL_4/0_Zuzara_0_416_0_2_2_2_2_2_2_2_2_2_2_2_2_2_2_2_2_2_2_2_2_2_2_2_2_2_2_2_2_2

New Line.l(r:p1rdt2287lv-p1rlv9610) Units=km Length=0.0497122 bus1=p1rdt2287lv.1.2 bus2=p1rlv9610.1.2 switch=n enabled=y phases=2 Linecode=1P_OH_AL_4/0_Zuzara_0_416_0_2_2_2_2_2_2_2_2_2_2_2_2_2_2_2_2_2_2_2_2_2_2_2_2_2_2_2_2_2

New Line.l(r:p1rdm4865-p1rlv2563) Units=km Length=0.0746766 bus1=p1rdm4865.1.2 bus2=p1rlv2563.1.2 switch=n enabled=y phases=2 Linecode=1P_OH_AL_4/0_Zuzara_0_416_0_2_2_2_2_2_2_2_2_2_2_2_2_2_2_2_2_2_2_2_2_2_2_2_2_2_2_2_2_2

New Line.l(r:p1rdm4865-p1rdt2287lv) Units=km Length=0.0168405 bus1=p1rdt2287lv.1.2 bus2=p1rdm4865.1.2 switch=n enabled=y phases=2 Linecode=1P_OH_AL_2/0_Rucina_0_416_0_2_2_2_2_2_2_2_2_2_2_2_2_2_2_2_2_2_2_2_2_2_2_2_2_2_2_2_2_2

New Line.l(r:p1rdm4866-p1rlv4292) Units=km Length=0.108478 bus1=p1rdm4866.1.2 bus2=p1rlv4292.1.2 switch=n enabled=y phases=2 Linecode=1P_OH_AL_4/0_Zuzara_0_416_0_2_2_2_2_2_2_2_2_2_2_2_2_2_2_2_2_2_2_2_2_2_2_2_2_2_2_2_2_2

New Line.l(r:p1rdm4866-p1rdt2287lv) Units=km Length=0.0336931 bus1=p1rdt2287lv.1.2 bus2=p1rdm4866.1.2 switch=n enabled=y phases=2 Linecode=1P_OH_AL_4/0_Zuzara_0_416_0_2_2_2_2_2_2_2_2_2_2_2_2_2_2_2_2_2_2_2_2_2_2_2_2_2_2_2_2_2

New Line.l(r:p1rdm4869-p1rlv2565) Units=km Length=0.00523941 bus1=p1rdm4869.1.2 bus2=p1rlv2565.1.2 switch=n enabled=y phases=2 Linecode=1P_OH_AL_2/0_Rucina_0_416_0_2_2_2_2_2_2_2_2_2_2_2_2_2_2_2_2_2_2_2_2_2_2_2_2_2_2_2_2_2

New Line.l(r:p1rdm4869-p1rdt2288lv) Units=km Length=0.0157905 bus1=p1rdt2288lv.1.2 bus2=p1rdm4869.1.2 switch=n enabled=y phases=2 Linecode=1P_OH_AL_2/0_Rucina_0_416_0_2_2_2_2_2_2_2_2_2_2_2_2_2_2_2_2_2_2_2_2_2_2_2_2_2_2_2_2_2

New Line.l(r:p1rdm4870-p1rlv3091) Units=km Length=0.0242538 bus1=p1rdm4870.1.2 bus2=p1rlv3091.1.2 switch=n enabled=y phases=2 Linecode=1P_UG_AL_1/0_Brenau_0_416_0_2_2_2_2_2_2_2_2_2_2_2_2_2_2_2_2_2_2_2_2_2_2_2_2_2_2_2_2_2

New Line.l(r:p1rdm4870-p1rdt2288lv) Units=km Length=0.0730228 bus1=p1rdt2288lv.1.2 bus2=p1rdm4870.1.2 switch=n enabled=y phases=2 Linecode=1P_OH_AL_4/0_Zuzara_0_416_0_2_2_2_2_2_2_2_2_2_2_2_2_2_2_2_2_2_2_2_2_2_2_2_2_2_2_2_2_2

New Line.l(r:p1rdt2289lv-p1rlv2566) Units=km Length=0.0470471 bus1=p1rdt2289lv.1.2 bus2=p1rlv2566.1.2 switch=n enabled=y phases=2 Linecode=1P_OH_AL_4/0_Zuzara_0_416_0_2_2_2_2_2_2_2_2_2_2_2_2_2_2_2_2_2_2_2_2_2_2_2_2_2_2_2_2_2

New Line.l(r:p1rdt2290lv-p1rlv2567) Units=km Length=0.0451415 bus1=p1rdt2290lv.1.2 bus2=p1rlv2567.1.2 switch=n enabled=y phases=2 Linecode=1P_OH_AL_4/0_Zuzara_0_416_0_2_2_2_2_2_2_2_2_2_2_2_2_2_2_2_2_2_2_2_2_2_2_2_2_2_2_2_2_2

New Line.l(r:p1rdt2300lv-p1rlv2581) Units=km Length=0.016009000000000002 bus1=p1rdt2300lv.1.2 bus2=p1rlv2581.1.2 switch=n enabled=y phases=2 Linecode=1P_OH_AL_2/0_Rucina_0_416_0_2_2_2_2_2_2_2_2_2_2_2_2_2_2_2_2_2_2_2_2_2_2_2_2_2_2_2_2_2

New Line.l(r:p1rdt2300lv-p1rlv6440) Units=km Length=0.016009000000000002 bus1=p1rdt2300lv.1.2 bus2=p1rlv6440.1.2 switch=n enabled=y phases=2 Linecode=1P_OH_AL_2/0_Rucina_0_416_0_2_2_2_2_2_2_2_2_2_2_2_2_2_2_2_2_2_2_2_2_2_2_2_2_2_2_2_2_2

New Line.l(r:p1rdt2301lv-p1rlv2582) Units=km Length=0.0349068 bus1=p1rdt2301lv.1.2 bus2=p1rlv2582.1.2 switch=n enabled=y phases=2 Linecode=1P_OH_AL_4/0_Zuzara_0_416_0_2_2_2_2_2_2_2_2_2_2_2_2_2_2_2_2_2_2_2_2_2_2_2_2_2_2_2_2_2

New Line.l(r:p1rdt2301lv-p1rlv5144) Units=km Length=0.0349068 bus1=p1rdt2301lv.1.2 bus2=p1rlv5144.1.2 switch=n enabled=y phases=2 Linecode=1P_OH_AL_4/0_Zuzara_0_416_0_2_2_2_2_2_2_2_2_2_2_2_2_2_2_2_2_2_2_2_2_2_2_2_2_2_2_2_2_2

New Line.l(r:p1rdt2398lv-p1rlv2705) Units=km Length=0.0867631 bus1=p1rdt2398lv.1.2 bus2=p1rlv2705.1.2 switch=n enabled=y phases=2 Linecode=1P_OH_AL_4/0_Zuzara_0_416_0_2_2_2_2_2_2_2_2_2_2_2_2_2_2_2_2_2_2_2_2_2_2_2_2_2_2_2_2_2

New Line.l(r:p1rdt2505lv-p1rlv2845) Units=km Length=0.001 bus1=p1rdt2505lv.1.2 bus2=p1rlv2845.1.2 switch=n enabled=y phases=2 Linecode=1P_OH_AL_4_Periwinkle_0_416_0_2_2_2_2_2_2_2_2_2_2_2_2_2_2_2_2_2_2_2_2_2_2_2_2_2_2_2_2_2

New Line.l(r:p1rdt2515lv-p1rlv2856) Units=km Length=0.0102834 bus1=p1rdt2515lv.1.2 bus2=p1rlv2856.1.2 switch=n enabled=y phases=2 Linecode=1P_OH_AL_2/0_Rucina_0_416_0_2_2_2_2_2_2_2_2_2_2_2_2_2_2_2_2_2_2_2_2_2_2_2_2_2_2_2_2_2

New Line.l(r:p1rdt2515lv-p1rlv3224) Units=km Length=0.0102834 bus1=p1rdt2515lv.1.2 bus2=p1rlv3224.1.2 switch=n enabled=y phases=2 Linecode=1P_OH_AL_2/0_Rucina_0_416_0_2_2_2_2_2_2_2_2_2_2_2_2_2_2_2_2_2_2_2_2_2_2_2_2_2_2_2_2_2

New Line.l(r:p1rdt2516lv-p1rlv2857) Units=km Length=0.04130640000000001 bus1=p1rdt2516lv.1.2 bus2=p1rlv2857.1.2 switch=n enabled=y phases=2 Linecode=1P_OH_AL_4/0_Zuzara_0_416_0_2_2_2_2_2_2_2_2_2_2_2_2_2_2_2_2_2_2_2_2_2_2_2_2_2_2_2_2_2

New Line.l(r:p1rdt2516lv-p1rlv8702) Units=km Length=0.04130640000000001 bus1=p1rdt2516lv.1.2 bus2=p1rlv8702.1.2 switch=n enabled=y phases=2 Linecode=1P_OH_AL_4/0_Zuzara_0_416_0_2_2_2_2_2_2_2_2_2_2_2_2_2_2_2_2_2_2_2_2_2_2_2_2_2_2_2_2_2

New Line.l(r:p1rdt2595lv-p1rlv2960) Units=km Length=0.001 bus1=p1rdt2595lv.1.2 bus2=p1rlv2960.1.2 switch=n enabled=y phases=2 Linecode=1P_OH_AL_4_Periwinkle_0_416_0_2_2_2_2_2_2_2_2_2_2_2_2_2_2_2_2_2_2_2_2_2_2_2_2_2_2_2_2_2

New Line.l(r:p1rdt2596lv-p1rlv2961) Units=km Length=0.0220169 bus1=p1rdt2596lv.1.2 bus2=p1rlv2961.1.2 switch=n enabled=y phases=2 Linecode=1P_OH_AL_2/0_Rucina_0_416_0_2_2_2_2_2_2_2_2_2_2_2_2_2_2_2_2_2_2_2_2_2_2_2_2_2_2_2_2_2

New Line.l(r:p1rdt2596lv-p1rlv11677) Units=km Length=0.0408088 bus1=p1rdt2596lv.1.2 bus2=p1rlv11677.1.2 switch=n enabled=y phases=2 Linecode=1P_OH_AL_4/0_Zuzara_0_416_0_2_2_2_2_2_2_2_2_2_2_2_2_2_2_2_2_2_2_2_2_2_2_2_2_2_2_2_2_2

New Line.l(r:p1rdt2700lv-p1rlv3087) Units=km Length=0.0752784 bus1=p1rdt2700lv.1.2 bus2=p1rlv3087.1.2 switch=n enabled=y phases=2 Linecode=1P_OH_AL_4/0_Zuzara_0_416_0_2_2_2_2_2_2_2_2_2_2_2_2_2_2_2_2_2_2_2_2_2_2_2_2_2_2_2_2_2

New Line.l(r:p1rdt2700lv-p1rlv3209) Units=km Length=0.053517600000000005 bus1=p1rdt2700lv.1.2 bus2=p1rlv3209.1.2 switch=n enabled=y phases=2 Linecode=1P_OH_AL_4/0_Zuzara_0_416_0_2_2_2_2_2_2_2_2_2_2_2_2_2_2_2_2_2_2_2_2_2_2_2_2_2_2_2_2_2

New Line.l(r:p1rdt2700lv-p1rlv13523) Units=km Length=0.0217961 bus1=p1rdt2700lv.1.2 bus2=p1rlv13523.1.2 switch=n enabled=y phases=2 Linecode=1P_OH_AL_2/0_Rucina_0_416_0_2_2_2_2_2_2_2_2_2_2_2_2_2_2_2_2_2_2_2_2_2_2_2_2_2_2_2_2_2

New Line.l(r:p1rdt2701lv-p1rlv3088) Units=km Length=0.00998581 bus1=p1rdt2701lv.1.2 bus2=p1rlv3088.1.2 switch=n enabled=y phases=2 Linecode=1P_UG_AL_1/0_Brenau_0_416_0_2_2_2_2_2_2_2_2_2_2_2_2_2_2_2_2_2_2_2_2_2_2_2_2_2_2_2_2_2

New Line.l(r:p1rdt2702lv-p1rlv3089) Units=km Length=0.0298908 bus1=p1rdt2702lv.1.2 bus2=p1rlv3089.1.2 switch=n enabled=y phases=2 Linecode=1P_OH_AL_4/0_Zuzara_0_416_0_2_2_2_2_2_2_2_2_2_2_2_2_2_2_2_2_2_2_2_2_2_2_2_2_2_2_2_2_2

New Line.l(r:p1rdt2703lv-p1rlv3090) Units=km Length=0.0387515 bus1=p1rdt2703lv.1.2 bus2=p1rlv3090.1.2 switch=n enabled=y phases=2 Linecode=1P_OH_AL_4/0_Zuzara_0_416_0_2_2_2_2_2_2_2_2_2_2_2_2_2_2_2_2_2_2_2_2_2_2_2_2_2_2_2_2_2

New Line.l(r:p1rdt2791lv-p1rlv3210) Units=km Length=0.025139100000000004 bus1=p1rdt2791lv.1.2 bus2=p1rlv3210.1.2 switch=n enabled=y phases=2 Linecode=1P_OH_AL_2/0_Rucina_0_416_0_2_2_2_2_2_2_2_2_2_2_2_2_2_2_2_2_2_2_2_2_2_2_2_2_2_2_2_2_2

New Line.l(r:p1rdt2792lv-p1rlv3211) Units=km Length=0.001 bus1=p1rdt2792lv.1.2 bus2=p1rlv3211.1.2 switch=n enabled=y phases=2 Linecode=1P_OH_AL_4_Periwinkle_0_416_0_2_2_2_2_2_2_2_2_2_2_2_2_2_2_2_2_2_2_2_2_2_2_2_2_2_2_2_2_2

New Line.l(r:p1rdt2793lv-p1rlv3212) Units=km Length=0.0380692 bus1=p1rdt2793lv.1.2 bus2=p1rlv3212.1.2 switch=n enabled=y phases=2 Linecode=1P_OH_AL_4/0_Zuzara_0_416_0_2_2_2_2_2_2_2_2_2_2_2_2_2_2_2_2_2_2_2_2_2_2_2_2_2_2_2_2_2

New Line.l(r:p1rdt2804lv-p1rlv3223) Units=km Length=0.0230594 bus1=p1rdt2804lv.1.2 bus2=p1rlv3223.1.2 switch=n enabled=y phases=2 Linecode=1P_OH_AL_2/0_Rucina_0_416_0_2_2_2_2_2_2_2_2_2_2_2_2_2_2_2_2_2_2_2_2_2_2_2_2_2_2_2_2_2

New Line.l(r:p1rdt2804lv-p1rlv12385) Units=km Length=0.0230594 bus1=p1rdt2804lv.1.2 bus2=p1rlv12385.1.2 switch=n enabled=y phases=2 Linecode=1P_OH_AL_2/0_Rucina_0_416_0_2_2_2_2_2_2_2_2_2_2_2_2_2_2_2_2_2_2_2_2_2_2_2_2_2_2_2_2_2

New Line.l(r:p1rdt2897lv-p1rlv3342) Units=km Length=0.0778831 bus1=p1rdt2897lv.1.2 bus2=p1rlv3342.1.2 switch=n enabled=y phases=2 Linecode=1P_OH_AL_4/0_Zuzara_0_416_0_2_2_2_2_2_2_2_2_2_2_2_2_2_2_2_2_2_2_2_2_2_2_2_2_2_2_2_2_2

New Line.l(r:p1rdt3110lv-p1rlv3640) Units=km Length=0.0112403 bus1=p1rdt3110lv.1.2 bus2=p1rlv3640.1.2 switch=n enabled=y phases=2 Linecode=1P_OH_AL_2/0_Rucina_0_416_0_2_2_2_2_2_2_2_2_2_2_2_2_2_2_2_2_2_2_2_2_2_2_2_2_2_2_2_2_2

New Line.l(r:p1rdt3214lv-p1rlv3778) Units=km Length=0.001 bus1=p1rdt3214lv.1.2 bus2=p1rlv3778.1.2 switch=n enabled=y phases=2 Linecode=1P_OH_AL_4_Periwinkle_0_416_0_2_2_2_2_2_2_2_2_2_2_2_2_2_2_2_2_2_2_2_2_2_2_2_2_2_2_2_2_2

New Line.l(r:p1rdm6599-p1rlv3781) Units=km Length=0.0321463 bus1=p1rdm6599.1.2 bus2=p1rlv3781.1.2 switch=n enabled=y phases=2 Linecode=1P_OH_AL_4/0_Zuzara_0_416_0_2_2_2_2_2_2_2_2_2_2_2_2_2_2_2_2_2_2_2_2_2_2_2_2_2_2_2_2_2

New Line.l(r:p1rdm6599-p1rdt3215lv) Units=km Length=0.0162368 bus1=p1rdt3215lv.1.2 bus2=p1rdm6599.1.2 switch=n enabled=y phases=2 Linecode=1P_OH_AL_2/0_Rucina_0_416_0_2_2_2_2_2_2_2_2_2_2_2_2_2_2_2_2_2_2_2_2_2_2_2_2_2_2_2_2_2

New Line.l(r:p1rdm6600-p1rlv13009) Units=km Length=0.037252400000000005 bus1=p1rdm6600.1.2 bus2=p1rlv13009.1.2 switch=n enabled=y phases=2 Linecode=1P_OH_AL_4/0_Zuzara_0_416_0_2_2_2_2_2_2_2_2_2_2_2_2_2_2_2_2_2_2_2_2_2_2_2_2_2_2_2_2_2

New Line.l(r:p1rdm6600-p1rdt3215lv) Units=km Length=0.0162368 bus1=p1rdt3215lv.1.2 bus2=p1rdm6600.1.2 switch=n enabled=y phases=2 Linecode=1P_OH_AL_2/0_Rucina_0_416_0_2_2_2_2_2_2_2_2_2_2_2_2_2_2_2_2_2_2_2_2_2_2_2_2_2_2_2_2_2

New Line.l(r:p1rdt3220lv-p1rlv3789) Units=km Length=0.0447132 bus1=p1rdt3220lv.1.2 bus2=p1rlv3789.1.2 switch=n enabled=y phases=2 Linecode=1P_OH_AL_4/0_Zuzara_0_416_0_2_2_2_2_2_2_2_2_2_2_2_2_2_2_2_2_2_2_2_2_2_2_2_2_2_2_2_2_2

New Line.l(r:p1rdt3220lv-p1rlv7512) Units=km Length=0.0447132 bus1=p1rdt3220lv.1.2 bus2=p1rlv7512.1.2 switch=n enabled=y phases=2 Linecode=1P_OH_AL_4/0_Zuzara_0_416_0_2_2_2_2_2_2_2_2_2_2_2_2_2_2_2_2_2_2_2_2_2_2_2_2_2_2_2_2_2

New Line.l(r:p1rdm6737-p1rlv3890) Units=km Length=0.0390659 bus1=p1rdm6737.1.2 bus2=p1rlv3890.1.2 switch=n enabled=y phases=2 Linecode=1P_OH_AL_4/0_Zuzara_0_416_0_2_2_2_2_2_2_2_2_2_2_2_2_2_2_2_2_2_2_2_2_2_2_2_2_2_2_2_2_2

New Line.l(r:p1rdm6737-p1rdt3299lv) Units=km Length=0.0189403 bus1=p1rdt3299lv.1.2 bus2=p1rdm6737.1.2 switch=n enabled=y phases=2 Linecode=1P_OH_AL_2/0_Rucina_0_416_0_2_2_2_2_2_2_2_2_2_2_2_2_2_2_2_2_2_2_2_2_2_2_2_2_2_2_2_2_2

New Line.l(r:p1rdm6738-p1rlv13526) Units=km Length=0.0430066 bus1=p1rdm6738.1.2 bus2=p1rlv13526.1.2 switch=n enabled=y phases=2 Linecode=1P_OH_AL_4/0_Zuzara_0_416_0_2_2_2_2_2_2_2_2_2_2_2_2_2_2_2_2_2_2_2_2_2_2_2_2_2_2_2_2_2
