Clear

New Circuit.substation_p4uhs18_69 bus1=p4uhs18_69 pu=1.0 basekV=69.0 R1=1e-05 X1=1e-05 R0=1e-05 X0=1e-05

Redirect p4uhs18_1247--p4udt2248/Transformers.dss
Redirect Transformers.dss
Redirect p4uhs18_1247--p4udt2247/Transformers.dss
Redirect p4uhs18_1247--p4udt18560/Transformers.dss
Redirect Regulators.dss
Redirect p4uhs18_1247--p4udt2248/Loads.dss
Redirect p4uhs18_1247--p4udt2247/Loads.dss
Redirect p4uhs18_1247--p4udt18560/Loads.dss
Redirect p4uhs18_1247--p4udt2248/LineCodes.dss
Redirect LineCodes.dss
Redirect p4uhs18_1247--p4udt2247/LineCodes.dss
Redirect p4uhs18_1247--p4udt18560/LineCodes.dss
Redirect p4uhs18_1247--p4udt2248/Lines.dss
Redirect Lines.dss
Redirect p4uhs18_1247--p4udt2247/Lines.dss
Redirect p4uhs18_1247--p4udt18560/Lines.dss
Redirect p4uhs18_1247--p4udt2248/Capacitors.dss
Redirect p4uhs18_1247--p4udt2247/Capacitors.dss
Redirect p4uhs18_1247--p4udt18560/Capacitors.dss

Set Voltagebases=[0.2080002494301389, 0.48, 7.199560000000001, 12.47, 69.0]

Calcvoltagebases

Buscoords Buscoords.dss

Solve