New Load.load_p5ulv5 conn=wye bus1=p5ulv5.1.2 kV=0.2080002494301389 Vminpu=0.8 Vmaxpu=1.2 model=1 kW=4.86005 kvar=0.9894153325398525 Phases=2

New Load.load_p5ulv37 conn=wye bus1=p5ulv37.1.2.3 kV=0.48 Vminpu=0.8 Vmaxpu=1.2 model=1 kW=24.0202 kvar=4.877509640160909 Phases=3

New Load.load_p5ulv38 conn=wye bus1=p5ulv38.1.2.3 kV=0.48 Vminpu=0.8 Vmaxpu=1.2 model=1 kW=38.400400000000005 kvar=7.797533791810018 Phases=3

New Load.load_p5ulv39 conn=wye bus1=p5ulv39.1.2 kV=0.2080002494301389 Vminpu=0.8 Vmaxpu=1.2 model=1 kW=5.91006 kvar=1.200088867866603 Phases=2

New Load.load_p5ulv40 conn=wye bus1=p5ulv40.1.2 kV=0.2080002494301389 Vminpu=0.8 Vmaxpu=1.2 model=1 kW=2.7800300000000004 kvar=0.5601303263507202 Phases=2

New Load.load_p5ulv49 conn=wye bus1=p5ulv49.1.2.3 kV=0.48 Vminpu=0.8 Vmaxpu=1.2 model=1 kW=26.020300000000002 kvar=5.283647267294982 Phases=3

New Load.load_p5ulv50 conn=wye bus1=p5ulv50.1.2 kV=0.2080002494301389 Vminpu=0.8 Vmaxpu=1.2 model=1 kW=18.680200000000003 kvar=3.793176392375327 Phases=2

New Load.load_p5ulv51 conn=wye bus1=p5ulv51.1.2.3 kV=0.48 Vminpu=0.8 Vmaxpu=1.2 model=1 kW=82.19080000000001 kvar=16.689553764437317 Phases=3

New Load.load_p5ulv53 conn=wye bus1=p5ulv53.1.2 kV=0.2080002494301389 Vminpu=0.8 Vmaxpu=1.2 model=1 kW=6.060060000000001 kvar=1.2305476669617041 Phases=2

New Load.load_p5ulv197 conn=wye bus1=p5ulv197.1.2 kV=0.2080002494301389 Vminpu=0.8 Vmaxpu=1.2 model=1 kW=8.84009 kvar=1.7904260887165682 Phases=2

New Load.load_p5ulv235 conn=wye bus1=p5ulv235.1.2 kV=0.2080002494301389 Vminpu=0.8 Vmaxpu=1.2 model=1 kW=4.94005 kvar=1.0005321664784275 Phases=2

New Load.load_p5ulv236 conn=wye bus1=p5ulv236.1.2 kV=0.2080002494301389 Vminpu=0.8 Vmaxpu=1.2 model=1 kW=18.0802 kvar=3.6713411959949247 Phases=2

New Load.load_p5ulv237 conn=wye bus1=p5ulv237.1.2 kV=0.2080002494301389 Vminpu=0.8 Vmaxpu=1.2 model=1 kW=9.24009 kvar=1.881109601762979 Phases=2

New Load.load_p5ulv244 conn=wye bus1=p5ulv244.1.2 kV=0.2080002494301389 Vminpu=0.8 Vmaxpu=1.2 model=1 kW=10.4201 kvar=2.121337580189199 Phases=2

New Load.load_p5ulv393 conn=wye bus1=p5ulv393.1.2 kV=0.2080002494301389 Vminpu=0.8 Vmaxpu=1.2 model=1 kW=4.94005 kvar=1.0005321664784275 Phases=2

New Load.load_p5ulv435 conn=wye bus1=p5ulv435.1.2.3 kV=0.48 Vminpu=0.8 Vmaxpu=1.2 model=1 kW=48.96050000000001 kvar=9.94185355397117 Phases=3

New Load.load_p5ulv436 conn=wye bus1=p5ulv436.1.2 kV=0.2080002494301389 Vminpu=0.8 Vmaxpu=1.2 model=1 kW=6.740070000000001 kvar=1.3686295867794334 Phases=2

New Load.load_p5ulv438 conn=wye bus1=p5ulv438.1.2 kV=0.2080002494301389 Vminpu=0.8 Vmaxpu=1.2 model=1 kW=7.13007 kvar=1.4515489717353578 Phases=2

New Load.load_p5ulv439 conn=wye bus1=p5ulv439.1.2 kV=0.2080002494301389 Vminpu=0.8 Vmaxpu=1.2 model=1 kW=5.45005 kvar=1.109528303846426 Phases=2

New Load.load_p5ulv442 conn=wye bus1=p5ulv442.1.2 kV=0.2080002494301389 Vminpu=0.8 Vmaxpu=1.2 model=1 kW=10.0701 kvar=2.050084122634452 Phases=2

New Load.load_p5ulv457 conn=wye bus1=p5ulv457.1.2 kV=0.2080002494301389 Vminpu=0.8 Vmaxpu=1.2 model=1 kW=8.41008 kvar=1.7121350808915057 Phases=2

New Load.load_p5ulv610 conn=wye bus1=p5ulv610.1.2 kV=0.2080002494301389 Vminpu=0.8 Vmaxpu=1.2 model=1 kW=6.67007 kvar=1.3509214659087996 Phases=2

New Load.load_p5ulv645 conn=wye bus1=p5ulv645.1.2 kV=0.2080002494301389 Vminpu=0.8 Vmaxpu=1.2 model=1 kW=3.61004 kvar=0.7292634355115489 Phases=2

New Load.load_p5ulv646 conn=wye bus1=p5ulv646.1.2 kV=0.2080002494301389 Vminpu=0.8 Vmaxpu=1.2 model=1 kW=14.8301 kvar=3.011380243068347 Phases=2

New Load.load_p5ulv651 conn=wye bus1=p5ulv651.1.2 kV=0.2080002494301389 Vminpu=0.8 Vmaxpu=1.2 model=1 kW=6.05006 kvar=1.2285170803553642 Phases=2

New Load.load_p5ulv658 conn=wye bus1=p5ulv658.1.2 kV=0.2080002494301389 Vminpu=0.8 Vmaxpu=1.2 model=1 kW=1.9700200000000003 kvar=0.4000296226222012 Phases=2

New Load.load_p5ulv662 conn=wye bus1=p5ulv662.1.2 kV=0.2080002494301389 Vminpu=0.8 Vmaxpu=1.2 model=1 kW=5.12005 kvar=1.0396704953791336 Phases=2

New Load.load_p5ulv790 conn=wye bus1=p5ulv790.1.2 kV=0.2080002494301389 Vminpu=0.8 Vmaxpu=1.2 model=1 kW=6.390060000000001 kvar=1.3008967685208197 Phases=2

New Load.load_p5ulv818 conn=wye bus1=p5ulv818.1.2.3 kV=0.48 Vminpu=0.8 Vmaxpu=1.2 model=1 kW=35.8804 kvar=7.285825967012326 Phases=3

New Load.load_p5ulv977 conn=wye bus1=p5ulv977.1.2.3 kV=0.48 Vminpu=0.8 Vmaxpu=1.2 model=1 kW=38.93039999999999 kvar=7.90515488194604 Phases=3

New Load.load_p5ulv978 conn=wye bus1=p5ulv978.1.2 kV=0.2080002494301389 Vminpu=0.8 Vmaxpu=1.2 model=1 kW=6.12006 kvar=1.239525286338795 Phases=2

New Load.load_p5ulv979 conn=wye bus1=p5ulv979.1.2 kV=0.2080002494301389 Vminpu=0.8 Vmaxpu=1.2 model=1 kW=17.2502 kvar=3.502802507668701 Phases=2

New Load.load_p5ulv980 conn=wye bus1=p5ulv980.1.2 kV=0.2080002494301389 Vminpu=0.8 Vmaxpu=1.2 model=1 kW=5.48005 kvar=1.109900972441596 Phases=2

New Load.load_p5ulv981 conn=wye bus1=p5ulv981.1.2.3 kV=0.48 Vminpu=0.8 Vmaxpu=1.2 model=1 kW=54.68050000000001 kvar=11.103349092797673 Phases=3

New Load.load_p5ulv987 conn=wye bus1=p5ulv987.1.2.3 kV=0.48 Vminpu=0.8 Vmaxpu=1.2 model=1 kW=22.9202 kvar=4.654145113463504 Phases=3

New Load.load_p5ulv988 conn=wye bus1=p5ulv988.1.2.3 kV=0.48 Vminpu=0.8 Vmaxpu=1.2 model=1 kW=21.840200000000003 kvar=4.43484175997878 Phases=3

New Load.load_p5ulv989 conn=wye bus1=p5ulv989.1.2 kV=0.2080002494301389 Vminpu=0.8 Vmaxpu=1.2 model=1 kW=7.9200800000000005 kvar=1.6082408369141645 Phases=2

New Load.load_p5ulv990 conn=wye bus1=p5ulv990.1.2 kV=0.2080002494301389 Vminpu=0.8 Vmaxpu=1.2 model=1 kW=5.04005 kvar=1.0207856490641993 Phases=2

New Load.load_p5ulv994 conn=wye bus1=p5ulv994.1.2.3 kV=0.48 Vminpu=0.8 Vmaxpu=1.2 model=1 kW=66.75069999999998 kvar=13.55430773838223 Phases=3

New Load.load_p5ulv995 conn=wye bus1=p5ulv995.1.2.3 kV=0.48 Vminpu=0.8 Vmaxpu=1.2 model=1 kW=33.1603 kvar=6.733486104221773 Phases=3

New Load.load_p5ulv1143 conn=wye bus1=p5ulv1143.1.2 kV=0.2080002494301389 Vminpu=0.8 Vmaxpu=1.2 model=1 kW=4.99005 kvar=1.0106589077713133 Phases=2

New Load.load_p5ulv1164 conn=wye bus1=p5ulv1164.1.2 kV=0.2080002494301389 Vminpu=0.8 Vmaxpu=1.2 model=1 kW=5.460050000000001 kvar=1.1087104399946952 Phases=2

New Load.load_p5ulv1167 conn=wye bus1=p5ulv1167.1.2.3 kV=0.48 Vminpu=0.8 Vmaxpu=1.2 model=1 kW=24.7002 kvar=5.015589529392033 Phases=3

New Load.load_p5ulv1363 conn=wye bus1=p5ulv1363.1.2.3 kV=0.48 Vminpu=0.8 Vmaxpu=1.2 model=1 kW=30.7103 kvar=6.235992385668461 Phases=3

New Load.load_p5ulv1367 conn=wye bus1=p5ulv1367.1.2.3 kV=0.48 Vminpu=0.8 Vmaxpu=1.2 model=1 kW=35.3504 kvar=7.178204876876305 Phases=3

New Load.load_p5ulv1373 conn=wye bus1=p5ulv1373.1.2 kV=0.2080002494301389 Vminpu=0.8 Vmaxpu=1.2 model=1 kW=3.56004 kvar=0.7191629458284491 Phases=2

New Load.load_p5ulv1374 conn=wye bus1=p5ulv1374.1.2 kV=0.2080002494301389 Vminpu=0.8 Vmaxpu=1.2 model=1 kW=0.310003 kvar=0.0599664687046236 Phases=2

New Load.load_p5ulv1526 conn=wye bus1=p5ulv1526.1.2 kV=0.2080002494301389 Vminpu=0.8 Vmaxpu=1.2 model=1 kW=8.49008 kvar=1.7195368743181074 Phases=2

New Load.load_p5ulv1527 conn=wye bus1=p5ulv1527.1.2 kV=0.2080002494301389 Vminpu=0.8 Vmaxpu=1.2 model=1 kW=4.630050000000001 kvar=0.9401717516684716 Phases=2

New Load.load_p5ulv1535 conn=wye bus1=p5ulv1535.1.2 kV=0.2080002494301389 Vminpu=0.8 Vmaxpu=1.2 model=1 kW=5.37005 kvar=1.0904351605376348 Phases=2

New Load.load_p5ulv1541 conn=wye bus1=p5ulv1541.1.2 kV=0.2080002494301389 Vminpu=0.8 Vmaxpu=1.2 model=1 kW=7.880080000000001 kvar=1.6001184904888048 Phases=2

New Load.load_p5ulv1542 conn=wye bus1=p5ulv1542.1.2 kV=0.2080002494301389 Vminpu=0.8 Vmaxpu=1.2 model=1 kW=6.88007 kvar=1.4006536449105385 Phases=2

New Load.load_p5ulv1707 conn=wye bus1=p5ulv1707.1.2.3 kV=0.48 Vminpu=0.8 Vmaxpu=1.2 model=1 kW=29.190300000000004 kvar=5.927343221504775 Phases=3

New Load.load_p5ulv1710 conn=wye bus1=p5ulv1710.1.2.3 kV=0.48 Vminpu=0.8 Vmaxpu=1.2 model=1 kW=33.9603 kvar=6.895933032728974 Phases=3

New Load.load_p5ulv1721 conn=wye bus1=p5ulv1721.1.2 kV=0.2080002494301389 Vminpu=0.8 Vmaxpu=1.2 model=1 kW=5.55006 kvar=1.1298884703894267 Phases=2

New Load.load_p5ulv1722 conn=wye bus1=p5ulv1722.1.2 kV=0.2080002494301389 Vminpu=0.8 Vmaxpu=1.2 model=1 kW=18.9402 kvar=3.8459716441401683 Phases=2

New Load.load_p5ulv1883 conn=wye bus1=p5ulv1883.1.2.3 kV=0.48 Vminpu=0.8 Vmaxpu=1.2 model=1 kW=49.2105 kvar=9.99261821912967 Phases=3

New Load.load_p5ulv1884 conn=wye bus1=p5ulv1884.1.2 kV=0.2080002494301389 Vminpu=0.8 Vmaxpu=1.2 model=1 kW=7.94008 kvar=1.608142720096362 Phases=2

New Load.load_p5ulv1885 conn=wye bus1=p5ulv1885.1.2.3 kV=0.48 Vminpu=0.8 Vmaxpu=1.2 model=1 kW=32.0303 kvar=6.504029817705347 Phases=3

New Load.load_p5ulv1891 conn=wye bus1=p5ulv1891.1.2 kV=0.2080002494301389 Vminpu=0.8 Vmaxpu=1.2 model=1 kW=5.54006 kvar=1.1307416199202263 Phases=2

New Load.load_p5ulv1895 conn=wye bus1=p5ulv1895.1.2.3 kV=0.48 Vminpu=0.8 Vmaxpu=1.2 model=1 kW=36.61039999999999 kvar=7.4340587892751495 Phases=3

New Load.load_p5ulv2100 conn=wye bus1=p5ulv2100.1.2 kV=0.2080002494301389 Vminpu=0.8 Vmaxpu=1.2 model=1 kW=2.61003 kvar=0.8597263258394949 Phases=2

New Load.load_p5ulv2103 conn=wye bus1=p5ulv2103.1.2 kV=0.2080002494301389 Vminpu=0.8 Vmaxpu=1.2 model=1 kW=4.15004 kvar=0.8405276287025704 Phases=2

New Load.load_p5ulv2104 conn=wye bus1=p5ulv2104.1.2.3 kV=0.48 Vminpu=0.8 Vmaxpu=1.2 model=1 kW=34.2203 kvar=6.948728284493818 Phases=3

New Load.load_p5ulv2105 conn=wye bus1=p5ulv2105.1.2 kV=0.2080002494301389 Vminpu=0.8 Vmaxpu=1.2 model=1 kW=6.68007 kvar=1.359937383450683 Phases=2

New Load.load_p5ulv2111 conn=wye bus1=p5ulv2111.1.2 kV=0.2080002494301389 Vminpu=0.8 Vmaxpu=1.2 model=1 kW=7.23007 kvar=1.4681283304900956 Phases=2

New Load.load_p5ulv2112 conn=wye bus1=p5ulv2112.1.2 kV=0.2080002494301389 Vminpu=0.8 Vmaxpu=1.2 model=1 kW=5.36005 kvar=1.091205986189491 Phases=2

New Load.load_p5ulv2283 conn=wye bus1=p5ulv2283.1.2.3 kV=0.48 Vminpu=0.8 Vmaxpu=1.2 model=1 kW=32.4803 kvar=6.595406214990649 Phases=3

New Load.load_p5ulv2284 conn=wye bus1=p5ulv2284.1.2.3 kV=0.48 Vminpu=0.8 Vmaxpu=1.2 model=1 kW=37.470400000000005 kvar=7.6086892374203945 Phases=3

New Load.load_p5ulv2286 conn=wye bus1=p5ulv2286.1.2 kV=0.2080002494301389 Vminpu=0.8 Vmaxpu=1.2 model=1 kW=3.15003 kvar=0.6396408727569326 Phases=2

New Load.load_p5ulv2287 conn=wye bus1=p5ulv2287.1.2.3 kV=0.48 Vminpu=0.8 Vmaxpu=1.2 model=1 kW=70.91070000000002 kvar=14.399031766619686 Phases=3

New Load.load_p5ulv2288 conn=wye bus1=p5ulv2288.1.2.3 kV=0.48 Vminpu=0.8 Vmaxpu=1.2 model=1 kW=93.8709 kvar=19.061299226508556 Phases=3

New Load.load_p5ulv2300 conn=wye bus1=p5ulv2300.1.2 kV=0.2080002494301389 Vminpu=0.8 Vmaxpu=1.2 model=1 kW=13.4801 kvar=2.737251051212441 Phases=2

New Load.load_p5ulv2462 conn=wye bus1=p5ulv2462.1.2 kV=0.2080002494301389 Vminpu=0.8 Vmaxpu=1.2 model=1 kW=4.68005 kvar=0.9503246847001716 Phases=2

New Load.load_p5ulv2465 conn=wye bus1=p5ulv2465.1.2 kV=0.2080002494301389 Vminpu=0.8 Vmaxpu=1.2 model=1 kW=5.340050000000001 kvar=1.078742398644737 Phases=2

New Load.load_p5ulv2466 conn=wye bus1=p5ulv2466.1.2 kV=0.2080002494301389 Vminpu=0.8 Vmaxpu=1.2 model=1 kW=5.35005 kvar=1.0891701731164982 Phases=2

New Load.load_p5ulv2468 conn=wye bus1=p5ulv2468.1.2.3 kV=0.48 Vminpu=0.8 Vmaxpu=1.2 model=1 kW=31.330299999999998 kvar=6.3618887552615435 Phases=3

New Load.load_p5ulv2472 conn=wye bus1=p5ulv2472.1.2.3 kV=0.48 Vminpu=0.8 Vmaxpu=1.2 model=1 kW=32.080299999999994 kvar=6.5141827507370476 Phases=3

New Load.load_p5ulv2610 conn=wye bus1=p5ulv2610.1.2 kV=0.2080002494301389 Vminpu=0.8 Vmaxpu=1.2 model=1 kW=5.04005 kvar=1.0207856490641993 Phases=2

New Load.load_p5ulv2612 conn=wye bus1=p5ulv2612.1.2 kV=0.2080002494301389 Vminpu=0.8 Vmaxpu=1.2 model=1 kW=2.99003 kvar=0.6102734204701886 Phases=2

New Load.load_p5ulv2636 conn=wye bus1=p5ulv2636.1.2.3 kV=0.48 Vminpu=0.8 Vmaxpu=1.2 model=1 kW=32.0403 kvar=6.506060404311689 Phases=3

New Load.load_p5ulv2638 conn=wye bus1=p5ulv2638.1.2 kV=0.2080002494301389 Vminpu=0.8 Vmaxpu=1.2 model=1 kW=4.10004 kvar=0.8304008874096844 Phases=2

New Load.load_p5ulv2649 conn=wye bus1=p5ulv2649.1.2.3 kV=0.48 Vminpu=0.8 Vmaxpu=1.2 model=1 kW=31.650300000000005 kvar=6.426867526664427 Phases=3

New Load.load_p5ulv2650 conn=wye bus1=p5ulv2650.1.2.3 kV=0.48 Vminpu=0.8 Vmaxpu=1.2 model=1 kW=21.340199999999996 kvar=4.333312429661778 Phases=3

New Load.load_p5ulv2660 conn=wye bus1=p5ulv2660.1.2 kV=0.2080002494301389 Vminpu=0.8 Vmaxpu=1.2 model=1 kW=15.0002 kvar=3.0537603257506185 Phases=2

New Load.load_p5ulv2661 conn=wye bus1=p5ulv2661.1.2 kV=0.2080002494301389 Vminpu=0.8 Vmaxpu=1.2 model=1 kW=8.78009 kvar=1.7782739991651049 Phases=2

New Load.load_p5ulv2829 conn=wye bus1=p5ulv2829.1.2 kV=0.2080002494301389 Vminpu=0.8 Vmaxpu=1.2 model=1 kW=5.28005 kvar=1.069394007270052 Phases=2

New Load.load_p5ulv2830 conn=wye bus1=p5ulv2830.1.2.3 kV=0.48 Vminpu=0.8 Vmaxpu=1.2 model=1 kW=93.6809 kvar=19.022718080988092 Phases=3

New Load.load_p5ulv2836 conn=wye bus1=p5ulv2836.1.2.3 kV=0.48 Vminpu=0.8 Vmaxpu=1.2 model=1 kW=35.1204 kvar=7.131501384930483 Phases=3

New Load.load_p5ulv2840 conn=wye bus1=p5ulv2840.1.2.3 kV=0.48 Vminpu=0.8 Vmaxpu=1.2 model=1 kW=39.4704 kvar=8.014806558688402 Phases=3

New Load.load_p5ulv3030 conn=wye bus1=p5ulv3030.1.2 kV=0.2080002494301389 Vminpu=0.8 Vmaxpu=1.2 model=1 kW=5.340050000000001 kvar=1.089919023883316 Phases=2

New Load.load_p5ulv3031 conn=wye bus1=p5ulv3031.1.2.3 kV=0.48 Vminpu=0.8 Vmaxpu=1.2 model=1 kW=120.241 kvar=24.415976413293308 Phases=3

New Load.load_p5ulv3036 conn=wye bus1=p5ulv3036.1.2 kV=0.2080002494301389 Vminpu=0.8 Vmaxpu=1.2 model=1 kW=5.37005 kvar=1.0904351605376348 Phases=2

New Load.load_p5ulv3037 conn=wye bus1=p5ulv3037.1.2 kV=0.2080002494301389 Vminpu=0.8 Vmaxpu=1.2 model=1 kW=5.61006 kvar=1.1391712696764018 Phases=2

New Load.load_p5ulv3041 conn=wye bus1=p5ulv3041.1.2 kV=0.2080002494301389 Vminpu=0.8 Vmaxpu=1.2 model=1 kW=5.28005 kvar=1.069394007270052 Phases=2

New Load.load_p5ulv3045 conn=wye bus1=p5ulv3045.1.2 kV=0.2080002494301389 Vminpu=0.8 Vmaxpu=1.2 model=1 kW=17.3802 kvar=3.529200133551121 Phases=2

New Load.load_p5ulv3046 conn=wye bus1=p5ulv3046.1.2 kV=0.2080002494301389 Vminpu=0.8 Vmaxpu=1.2 model=1 kW=5.45005 kvar=1.109528303846426 Phases=2

New Load.load_p5ulv3232 conn=wye bus1=p5ulv3232.1.2.3 kV=0.48 Vminpu=0.8 Vmaxpu=1.2 model=1 kW=31.800299999999996 kvar=6.457326325759524 Phases=3

New Load.load_p5ulv3417 conn=wye bus1=p5ulv3417.1.2 kV=0.2080002494301389 Vminpu=0.8 Vmaxpu=1.2 model=1 kW=5.49005 kvar=1.1090438676940364 Phases=2

New Load.load_p5ulv3423 conn=wye bus1=p5ulv3423.1.2 kV=0.2080002494301389 Vminpu=0.8 Vmaxpu=1.2 model=1 kW=4.74005 kvar=0.9600252013068835 Phases=2

New Load.load_p5ulv3425 conn=wye bus1=p5ulv3425.1.2.3 kV=0.48 Vminpu=0.8 Vmaxpu=1.2 model=1 kW=23.0202 kvar=4.674450979526905 Phases=3

New Load.load_p5ulv3596 conn=wye bus1=p5ulv3596.1.2.3 kV=0.48 Vminpu=0.8 Vmaxpu=1.2 model=1 kW=35.8704 kvar=7.283795380405987 Phases=3

New Load.load_p5ulv3598 conn=wye bus1=p5ulv3598.1.2 kV=0.2080002494301389 Vminpu=0.8 Vmaxpu=1.2 model=1 kW=5.26005 kvar=1.070847855459563 Phases=2

New Load.load_p5ulv3605 conn=wye bus1=p5ulv3605.1.2 kV=0.2080002494301389 Vminpu=0.8 Vmaxpu=1.2 model=1 kW=10.8001 kvar=2.187396372745957 Phases=2

New Load.load_p5ulv3606 conn=wye bus1=p5ulv3606.1.2 kV=0.2080002494301389 Vminpu=0.8 Vmaxpu=1.2 model=1 kW=1.76002 kvar=0.3601407008564061 Phases=2

New Load.load_p5ulv3780 conn=wye bus1=p5ulv3780.1.2.3 kV=0.48 Vminpu=0.8 Vmaxpu=1.2 model=1 kW=33.1603 kvar=6.733486104221773 Phases=3

New Load.load_p5ulv3781 conn=wye bus1=p5ulv3781.1.2 kV=0.2080002494301389 Vminpu=0.8 Vmaxpu=1.2 model=1 kW=6.45006 kvar=1.3097405446089656 Phases=2

New Load.load_p5ulv3783 conn=wye bus1=p5ulv3783.1.2 kV=0.2080002494301389 Vminpu=0.8 Vmaxpu=1.2 model=1 kW=2.16002 kvar=0.43973969539258484 Phases=2

New Load.load_p5ulv3784 conn=wye bus1=p5ulv3784.1.2 kV=0.2080002494301389 Vminpu=0.8 Vmaxpu=1.2 model=1 kW=3.00003 kvar=0.6107500293370508 Phases=2

New Load.load_p5ulv3785 conn=wye bus1=p5ulv3785.1.2 kV=0.2080002494301389 Vminpu=0.8 Vmaxpu=1.2 model=1 kW=5.04005 kvar=1.0207856490641993 Phases=2

New Load.load_p5ulv3951 conn=wye bus1=p5ulv3951.1.2 kV=0.2080002494301389 Vminpu=0.8 Vmaxpu=1.2 model=1 kW=5.57006 kvar=1.131048923251042 Phases=2

New Load.load_p5ulv3952 conn=wye bus1=p5ulv3952.1.2.3 kV=0.48 Vminpu=0.8 Vmaxpu=1.2 model=1 kW=35.5004 kvar=7.208663675971406 Phases=3

New Load.load_p5ulv3957 conn=wye bus1=p5ulv3957.1.2 kV=0.2080002494301389 Vminpu=0.8 Vmaxpu=1.2 model=1 kW=1.29001 kvar=0.2599158002955697 Phases=2

New Load.load_p5ulv3964 conn=wye bus1=p5ulv3964.1.2 kV=0.2080002494301389 Vminpu=0.8 Vmaxpu=1.2 model=1 kW=6.96007 kvar=1.409656565407538 Phases=2

New Load.load_p5ulv3966 conn=wye bus1=p5ulv3966.1.2.3 kV=0.48 Vminpu=0.8 Vmaxpu=1.2 model=1 kW=31.5803 kvar=6.412653420420046 Phases=3

New Load.load_p5ulv3968 conn=wye bus1=p5ulv3968.1.2 kV=0.2080002494301389 Vminpu=0.8 Vmaxpu=1.2 model=1 kW=5.49005 kvar=1.1205344401401856 Phases=2

New Load.load_p5ulv3969 conn=wye bus1=p5ulv3969.1.2 kV=0.2080002494301389 Vminpu=0.8 Vmaxpu=1.2 model=1 kW=10.010100000000001 kvar=2.0326374988124463 Phases=2

New Load.load_p5ulv4309 conn=wye bus1=p5ulv4309.1.2.3 kV=0.48 Vminpu=0.8 Vmaxpu=1.2 model=1 kW=30.850299999999997 kvar=6.264420598157223 Phases=3

New Load.load_p5ulv4310 conn=wye bus1=p5ulv4310.1.2 kV=0.2080002494301389 Vminpu=0.8 Vmaxpu=1.2 model=1 kW=15.1202 kvar=3.070287560518272 Phases=2

New Load.load_p5ulv4313 conn=wye bus1=p5ulv4313.1.2 kV=0.2080002494301389 Vminpu=0.8 Vmaxpu=1.2 model=1 kW=5.96006 kvar=1.2102418008983036 Phases=2

New Load.load_p5ulv4315 conn=wye bus1=p5ulv4315.1.2 kV=0.2080002494301389 Vminpu=0.8 Vmaxpu=1.2 model=1 kW=5.37005 kvar=1.0904351605376348 Phases=2

New Load.load_p5ulv4318 conn=wye bus1=p5ulv4318.1.2 kV=0.2080002494301389 Vminpu=0.8 Vmaxpu=1.2 model=1 kW=6.59007 kvar=1.341615065793748 Phases=2

New Load.load_p5ulv4320 conn=wye bus1=p5ulv4320.1.2 kV=0.2080002494301389 Vminpu=0.8 Vmaxpu=1.2 model=1 kW=7.09007 kvar=1.4397001180013347 Phases=2

New Load.load_p5ulv4323 conn=wye bus1=p5ulv4323.1.2 kV=0.2080002494301389 Vminpu=0.8 Vmaxpu=1.2 model=1 kW=7.030070000000001 kvar=1.43119084100543 Phases=2

New Load.load_p5ulv4493 conn=wye bus1=p5ulv4493.1.2 kV=0.2080002494301389 Vminpu=0.8 Vmaxpu=1.2 model=1 kW=5.54006 kvar=1.1307416199202263 Phases=2

New Load.load_p5ulv4495 conn=wye bus1=p5ulv4495.1.2.3 kV=0.48 Vminpu=0.8 Vmaxpu=1.2 model=1 kW=35.93039999999999 kvar=7.2959789000440285 Phases=3

New Load.load_p5ulv4496 conn=wye bus1=p5ulv4496.1.2 kV=0.2080002494301389 Vminpu=0.8 Vmaxpu=1.2 model=1 kW=5.15005 kvar=1.0511394966246144 Phases=2

New Load.load_p5ulv4497 conn=wye bus1=p5ulv4497.1.2.3 kV=0.48 Vminpu=0.8 Vmaxpu=1.2 model=1 kW=20.2102 kvar=4.103856143145354 Phases=3

New Load.load_p5ulv4502 conn=wye bus1=p5ulv4502.1.2 kV=0.2080002494301389 Vminpu=0.8 Vmaxpu=1.2 model=1 kW=9.21009 kvar=1.8701885397186364 Phases=2

New Load.load_p5ulv4503 conn=wye bus1=p5ulv4503.1.2 kV=0.2080002494301389 Vminpu=0.8 Vmaxpu=1.2 model=1 kW=9.03009 kvar=1.8289077056295349 Phases=2

New Load.load_p5ulv4667 conn=wye bus1=p5ulv4667.1.2 kV=0.2080002494301389 Vminpu=0.8 Vmaxpu=1.2 model=1 kW=5.50006 kvar=1.119709405024463 Phases=2

New Load.load_p5ulv4668 conn=wye bus1=p5ulv4668.1.2.3 kV=0.48 Vminpu=0.8 Vmaxpu=1.2 model=1 kW=37.9104 kvar=7.6980350480993565 Phases=3

New Load.load_p5ulv4669 conn=wye bus1=p5ulv4669.1.2.3 kV=0.48 Vminpu=0.8 Vmaxpu=1.2 model=1 kW=21.840200000000003 kvar=4.43484175997878 Phases=3

New Load.load_p5ulv4677 conn=wye bus1=p5ulv4677.1.2 kV=0.2080002494301389 Vminpu=0.8 Vmaxpu=1.2 model=1 kW=5.74006 kvar=1.1685689187762893 Phases=2

New Load.load_p5ulv4678 conn=wye bus1=p5ulv4678.1.2 kV=0.2080002494301389 Vminpu=0.8 Vmaxpu=1.2 model=1 kW=7.64008 kvar=1.5513844119366436 Phases=2

New Load.load_p5ulv4679 conn=wye bus1=p5ulv4679.1.2 kV=0.2080002494301389 Vminpu=0.8 Vmaxpu=1.2 model=1 kW=7.05007 kvar=1.4315777715759745 Phases=2

New Load.load_p5ulv4834 conn=wye bus1=p5ulv4834.1.2 kV=0.2080002494301389 Vminpu=0.8 Vmaxpu=1.2 model=1 kW=9.680100000000001 kvar=1.9706874127877338 Phases=2

New Load.load_p5ulv4836 conn=wye bus1=p5ulv4836.1.2 kV=0.2080002494301389 Vminpu=0.8 Vmaxpu=1.2 model=1 kW=4.11004 kvar=0.8410090147543001 Phases=2

New Load.load_p5ulv4838 conn=wye bus1=p5ulv4838.1.2 kV=0.2080002494301389 Vminpu=0.8 Vmaxpu=1.2 model=1 kW=7.95008 kvar=1.6101680683549389 Phases=2

New Load.load_p5ulv4840 conn=wye bus1=p5ulv4840.1.2 kV=0.2080002494301389 Vminpu=0.8 Vmaxpu=1.2 model=1 kW=5.26005 kvar=1.070847855459563 Phases=2

New Load.load_p5ulv4841 conn=wye bus1=p5ulv4841.1.2 kV=0.2080002494301389 Vminpu=0.8 Vmaxpu=1.2 model=1 kW=5.50006 kvar=1.119709405024463 Phases=2

New Load.load_p5ulv4842 conn=wye bus1=p5ulv4842.1.2.3 kV=0.48 Vminpu=0.8 Vmaxpu=1.2 model=1 kW=72.26070000000001 kvar=14.673160958475597 Phases=3

New Load.load_p5ulv4850 conn=wye bus1=p5ulv4850.1.2 kV=0.2080002494301389 Vminpu=0.8 Vmaxpu=1.2 model=1 kW=5.53006 kvar=1.1200297390827405 Phases=2

New Load.load_p5ulv4851 conn=wye bus1=p5ulv4851.1.2 kV=0.2080002494301389 Vminpu=0.8 Vmaxpu=1.2 model=1 kW=5.57006 kvar=1.131048923251042 Phases=2

New Load.load_p5ulv5047 conn=wye bus1=p5ulv5047.1.2.3 kV=0.48 Vminpu=0.8 Vmaxpu=1.2 model=1 kW=30.570299999999996 kvar=6.2075641731796996 Phases=3

New Load.load_p5ulv5048 conn=wye bus1=p5ulv5048.1.2.3 kV=0.48 Vminpu=0.8 Vmaxpu=1.2 model=1 kW=36.3104 kvar=7.37314119108495 Phases=3

New Load.load_p5ulv5049 conn=wye bus1=p5ulv5049.1.2.3 kV=0.48 Vminpu=0.8 Vmaxpu=1.2 model=1 kW=23.0302 kvar=4.676481566133246 Phases=3

New Load.load_p5ulv5058 conn=wye bus1=p5ulv5058.1.2.3 kV=0.48 Vminpu=0.8 Vmaxpu=1.2 model=1 kW=33.6503 kvar=6.832984847932436 Phases=3

New Load.load_p5ulv5423 conn=wye bus1=p5ulv5423.1.2.3 kV=0.48 Vminpu=0.8 Vmaxpu=1.2 model=1 kW=32.8903 kvar=6.678660265850592 Phases=3

New Load.load_p5ulv5438 conn=wye bus1=p5ulv5438.1.2.3 kV=0.48 Vminpu=0.8 Vmaxpu=1.2 model=1 kW=51.27049999999999 kvar=10.410919060035717 Phases=3

New Load.load_p5ulv5621 conn=wye bus1=p5ulv5621.1.2 kV=0.2080002494301389 Vminpu=0.8 Vmaxpu=1.2 model=1 kW=7.78008 kvar=1.579812624425404 Phases=2

New Load.load_p5ulv5622 conn=wye bus1=p5ulv5622.1.2 kV=0.2080002494301389 Vminpu=0.8 Vmaxpu=1.2 model=1 kW=7.34007 kvar=1.4904647831598359 Phases=2

New Load.load_p5ulv5628 conn=wye bus1=p5ulv5628.1.2 kV=0.2080002494301389 Vminpu=0.8 Vmaxpu=1.2 model=1 kW=8.73009 kvar=1.7681472578722188 Phases=2

New Load.load_p5ulv5822 conn=wye bus1=p5ulv5822.1.2 kV=0.2080002494301389 Vminpu=0.8 Vmaxpu=1.2 model=1 kW=5.090050000000001 kvar=1.0309123903570856 Phases=2

New Load.load_p5ulv5830 conn=wye bus1=p5ulv5830.1.2 kV=0.2080002494301389 Vminpu=0.8 Vmaxpu=1.2 model=1 kW=7.79008 kvar=1.581843211031744 Phases=2

New Load.load_p5ulv5832 conn=wye bus1=p5ulv5832.1.2 kV=0.2080002494301389 Vminpu=0.8 Vmaxpu=1.2 model=1 kW=5.24005 kvar=1.0612926142357433 Phases=2

New Load.load_p5ulv5990 conn=wye bus1=p5ulv5990.1.2 kV=0.2080002494301389 Vminpu=0.8 Vmaxpu=1.2 model=1 kW=11.510100000000001 kvar=2.337225489763453 Phases=2

New Load.load_p5ulv6000 conn=wye bus1=p5ulv6000.1.2 kV=0.2080002494301389 Vminpu=0.8 Vmaxpu=1.2 model=1 kW=3.48003 kvar=0.71028378024263 Phases=2

New Load.load_p5ulv6007 conn=wye bus1=p5ulv6007.1.2 kV=0.2080002494301389 Vminpu=0.8 Vmaxpu=1.2 model=1 kW=15.140200000000002 kvar=3.066417770451045 Phases=2

New Load.load_p5ulv6008 conn=wye bus1=p5ulv6008.1.2.3 kV=0.48 Vminpu=0.8 Vmaxpu=1.2 model=1 kW=21.890199999999997 kvar=4.44499469301048 Phases=3

New Load.load_p5ulv6009 conn=wye bus1=p5ulv6009.1.2.3 kV=0.48 Vminpu=0.8 Vmaxpu=1.2 model=1 kW=30.720300000000005 kvar=6.238022972274802 Phases=3

New Load.load_p5ulv6010 conn=wye bus1=p5ulv6010.1.2.3 kV=0.48 Vminpu=0.8 Vmaxpu=1.2 model=1 kW=20.9302 kvar=4.250058378801836 Phases=3

New Load.load_p5ulv6011 conn=wye bus1=p5ulv6011.1.2.3 kV=0.48 Vminpu=0.8 Vmaxpu=1.2 model=1 kW=19.860200000000003 kvar=4.032785611923452 Phases=3

New Load.load_p5ulv6177 conn=wye bus1=p5ulv6177.1.2.3 kV=0.48 Vminpu=0.8 Vmaxpu=1.2 model=1 kW=37.2704 kvar=7.568077505293593 Phases=3

New Load.load_p5ulv6178 conn=wye bus1=p5ulv6178.1.2.3 kV=0.48 Vminpu=0.8 Vmaxpu=1.2 model=1 kW=19.7902 kvar=4.018571505679072 Phases=3

New Load.load_p5ulv6182 conn=wye bus1=p5ulv6182.1.2 kV=0.2080002494301389 Vminpu=0.8 Vmaxpu=1.2 model=1 kW=7.320070000000001 kvar=1.4902294201222208 Phases=2

New Load.load_p5ulv6183 conn=wye bus1=p5ulv6183.1.2 kV=0.2080002494301389 Vminpu=0.8 Vmaxpu=1.2 model=1 kW=6.71007 kvar=1.3590228589431081 Phases=2

New Load.load_p5ulv6190 conn=wye bus1=p5ulv6190.1.2 kV=0.2080002494301389 Vminpu=0.8 Vmaxpu=1.2 model=1 kW=5.83006 kvar=1.180790186840056 Phases=2

New Load.load_p5ulv6197 conn=wye bus1=p5ulv6197.1.2 kV=0.2080002494301389 Vminpu=0.8 Vmaxpu=1.2 model=1 kW=8.98009 kvar=1.8187809643366486 Phases=2

New Load.load_p5ulv6359 conn=wye bus1=p5ulv6359.1.2.3 kV=0.48 Vminpu=0.8 Vmaxpu=1.2 model=1 kW=74.0507 kvar=15.036635961010463 Phases=3

New Load.load_p5ulv6360 conn=wye bus1=p5ulv6360.1.2.3 kV=0.48 Vminpu=0.8 Vmaxpu=1.2 model=1 kW=24.870199999999997 kvar=5.050109501699813 Phases=3

New Load.load_p5ulv6364 conn=wye bus1=p5ulv6364.1.2 kV=0.2080002494301389 Vminpu=0.8 Vmaxpu=1.2 model=1 kW=5.14005 kvar=1.0410391316499712 Phases=2

New Load.load_p5ulv6365 conn=wye bus1=p5ulv6365.1.2 kV=0.2080002494301389 Vminpu=0.8 Vmaxpu=1.2 model=1 kW=14.3801 kvar=2.9200038457830453 Phases=2

New Load.load_p5ulv6373 conn=wye bus1=p5ulv6373.1.2.3 kV=0.48 Vminpu=0.8 Vmaxpu=1.2 model=1 kW=57.290600000000005 kvar=11.633352502918486 Phases=3

New Load.load_p5ulv6375 conn=wye bus1=p5ulv6375.1.2 kV=0.2080002494301389 Vminpu=0.8 Vmaxpu=1.2 model=1 kW=15.1702 kvar=3.0804404935499714 Phases=2

New Load.load_p5ulv6513 conn=wye bus1=p5ulv6513.1.2.3 kV=0.48 Vminpu=0.8 Vmaxpu=1.2 model=1 kW=35.270399999999995 kvar=7.1619601840255855 Phases=3

New Load.load_p5ulv6516 conn=wye bus1=p5ulv6516.1.2 kV=0.2080002494301389 Vminpu=0.8 Vmaxpu=1.2 model=1 kW=15.2402 kvar=3.102619839502445 Phases=2

New Load.load_p5ulv6558 conn=wye bus1=p5ulv6558.1.2 kV=0.2080002494301389 Vminpu=0.8 Vmaxpu=1.2 model=1 kW=15.1102 kvar=3.068256973911932 Phases=2

New Load.load_p5ulv6559 conn=wye bus1=p5ulv6559.1.2 kV=0.2080002494301389 Vminpu=0.8 Vmaxpu=1.2 model=1 kW=2.06002 kvar=0.4204557986498457 Phases=2

New Load.load_p5ulv6744 conn=wye bus1=p5ulv6744.1.2 kV=0.2080002494301389 Vminpu=0.8 Vmaxpu=1.2 model=1 kW=4.13004 kvar=0.840798942398307 Phases=2

New Load.load_p5ulv6745 conn=wye bus1=p5ulv6745.1.2 kV=0.2080002494301389 Vminpu=0.8 Vmaxpu=1.2 model=1 kW=5.74006 kvar=1.1685689187762893 Phases=2

New Load.load_p5ulv6748 conn=wye bus1=p5ulv6748.1.2.3 kV=0.48 Vminpu=0.8 Vmaxpu=1.2 model=1 kW=23.5402 kvar=4.780041483056588 Phases=3

New Load.load_p5ulv6752 conn=wye bus1=p5ulv6752.1.2 kV=0.2080002494301389 Vminpu=0.8 Vmaxpu=1.2 model=1 kW=5.560060000000001 kvar=1.129018336644702 Phases=2

New Load.load_p5ulv6757 conn=wye bus1=p5ulv6757.1.2 kV=0.2080002494301389 Vminpu=0.8 Vmaxpu=1.2 model=1 kW=9.8201 kvar=1.9889122434053916 Phases=2

New Load.load_p5ulv6758 conn=wye bus1=p5ulv6758.1.2 kV=0.2080002494301389 Vminpu=0.8 Vmaxpu=1.2 model=1 kW=7.630080000000001 kvar=1.5493538253303036 Phases=2

New Load.load_p5ulv6759 conn=wye bus1=p5ulv6759.1.2 kV=0.2080002494301389 Vminpu=0.8 Vmaxpu=1.2 model=1 kW=10.2501 kvar=2.081371577364607 Phases=2

New Load.load_p5ulv6760 conn=wye bus1=p5ulv6760.1.2 kV=0.2080002494301389 Vminpu=0.8 Vmaxpu=1.2 model=1 kW=8.91009 kvar=1.8092709415284354 Phases=2

New Load.load_p5ulv6916 conn=wye bus1=p5ulv6916.1.2 kV=0.2080002494301389 Vminpu=0.8 Vmaxpu=1.2 model=1 kW=3.50004 kvar=0.7107134345654403 Phases=2

New Load.load_p5ulv6921 conn=wye bus1=p5ulv6921.1.2.3 kV=0.48 Vminpu=0.8 Vmaxpu=1.2 model=1 kW=32.3703 kvar=6.57306976232091 Phases=3

New Load.load_p5ulv7050 conn=wye bus1=p5ulv7050.1.2.3 kV=0.48 Vminpu=0.8 Vmaxpu=1.2 model=1 kW=25.870299999999997 kvar=8.503156406208744 Phases=3

New Load.load_p5ulv7082 conn=wye bus1=p5ulv7082.1.2.3 kV=0.48 Vminpu=0.8 Vmaxpu=1.2 model=1 kW=26.240300000000005 kvar=5.328320172634465 Phases=3

New Load.load_p5ulv7094 conn=wye bus1=p5ulv7094.1.2.3 kV=0.48 Vminpu=0.8 Vmaxpu=1.2 model=1 kW=32.5803 kvar=6.615712081054051 Phases=3

New Load.load_p5ulv7095 conn=wye bus1=p5ulv7095.1.2 kV=0.2080002494301389 Vminpu=0.8 Vmaxpu=1.2 model=1 kW=9.8301 kvar=2.0012246088826253 Phases=2

New Load.load_p5ulv7243 conn=wye bus1=p5ulv7243.1.2 kV=0.2080002494301389 Vminpu=0.8 Vmaxpu=1.2 model=1 kW=4.79005 kvar=0.9701519425997696 Phases=2

New Load.load_p5ulv7270 conn=wye bus1=p5ulv7270.1.2 kV=0.2080002494301389 Vminpu=0.8 Vmaxpu=1.2 model=1 kW=14.1301 kvar=2.869239180624544 Phases=2

New Load.load_p5ulv7279 conn=wye bus1=p5ulv7279.1.2 kV=0.2080002494301389 Vminpu=0.8 Vmaxpu=1.2 model=1 kW=11.6401 kvar=2.3575256264664413 Phases=2

New Load.load_p5ulv7285 conn=wye bus1=p5ulv7285.1.2 kV=0.2080002494301389 Vminpu=0.8 Vmaxpu=1.2 model=1 kW=2.67003 kvar=0.5393722093713369 Phases=2

New Load.load_p5ulv7286 conn=wye bus1=p5ulv7286.1.2 kV=0.2080002494301389 Vminpu=0.8 Vmaxpu=1.2 model=1 kW=2.42002 kvar=0.49013832927219847 Phases=2

New Load.load_p5ulv7477 conn=wye bus1=p5ulv7477.1.2.3 kV=0.48 Vminpu=0.8 Vmaxpu=1.2 model=1 kW=53.5805 kvar=10.879984566100267 Phases=3

New Load.load_p5ulv7664 conn=wye bus1=p5ulv7664.1.2.3 kV=0.48 Vminpu=0.8 Vmaxpu=1.2 model=1 kW=32.520300000000006 kvar=6.6035285614160095 Phases=3

New Load.load_p5ulv7665 conn=wye bus1=p5ulv7665.1.2 kV=0.2080002494301389 Vminpu=0.8 Vmaxpu=1.2 model=1 kW=1.09001 kvar=0.22019269518951132 Phases=2

New Load.load_p5ulv7666 conn=wye bus1=p5ulv7666.1.2 kV=0.2080002494301389 Vminpu=0.8 Vmaxpu=1.2 model=1 kW=10.670100000000001 kvar=2.1722329070140183 Phases=2

New Load.load_p5ulv7667 conn=wye bus1=p5ulv7667.1.2 kV=0.2080002494301389 Vminpu=0.8 Vmaxpu=1.2 model=1 kW=5.03005 kvar=1.0187603008056223 Phases=2

New Load.load_p5ulv7831 conn=wye bus1=p5ulv7831.1.2.3 kV=0.48 Vminpu=0.8 Vmaxpu=1.2 model=1 kW=37.6104 kvar=7.637117449909154 Phases=3
