New Line.l(r:p1rdm68-p1rlv33) Units=km Length=0.0453362 bus1=p1rdm68.1.2 bus2=p1rlv33.1.2 switch=n enabled=y phases=2 Linecode=1P_OH_AL_4/0_Zuzara_0_416_0_2_2_2_2_2_2_2_2_2_2_2_2_2_2_2_2_2_2_2_2_2_2_2_2_2_2_2_2_2

New Line.l(r:p1rdm68-p1rdt32lv) Units=km Length=0.0168941 bus1=p1rdt32lv.1.2 bus2=p1rdm68.1.2 switch=n enabled=y phases=2 Linecode=1P_OH_AL_2/0_Rucina_0_416_0_2_2_2_2_2_2_2_2_2_2_2_2_2_2_2_2_2_2_2_2_2_2_2_2_2_2_2_2_2

New Line.l(r:p1rdm69-p1rlv12396) Units=km Length=0.039120100000000005 bus1=p1rdm69.1.2 bus2=p1rlv12396.1.2 switch=n enabled=y phases=2 Linecode=1P_OH_AL_4/0_Zuzara_0_416_0_2_2_2_2_2_2_2_2_2_2_2_2_2_2_2_2_2_2_2_2_2_2_2_2_2_2_2_2_2

New Line.l(r:p1rdm69-p1rdt32lv) Units=km Length=0.0168894 bus1=p1rdt32lv.1.2 bus2=p1rdm69.1.2 switch=n enabled=y phases=2 Linecode=1P_OH_AL_2/0_Rucina_0_416_0_2_2_2_2_2_2_2_2_2_2_2_2_2_2_2_2_2_2_2_2_2_2_2_2_2_2_2_2_2

New Line.l(r:p1rdt154lv-p1rlv159) Units=km Length=0.001 bus1=p1rdt154lv.1.2 bus2=p1rlv159.1.2 switch=n enabled=y phases=2 Linecode=1P_OH_AL_4_Periwinkle_0_416_0_2_2_2_2_2_2_2_2_2_2_2_2_2_2_2_2_2_2_2_2_2_2_2_2_2_2_2_2_2

New Line.l(r:p1rdt291lv-p1rlv299) Units=km Length=0.0562772 bus1=p1rdt291lv.1.2 bus2=p1rlv299.1.2 switch=n enabled=y phases=2 Linecode=1P_OH_AL_4/0_Zuzara_0_416_0_2_2_2_2_2_2_2_2_2_2_2_2_2_2_2_2_2_2_2_2_2_2_2_2_2_2_2_2_2

New Line.l(r:p1rdm686-p1rlv5273) Units=km Length=0.043895 bus1=p1rdm686.1.2 bus2=p1rlv5273.1.2 switch=n enabled=y phases=2 Linecode=1P_OH_AL_4/0_Zuzara_0_416_0_2_2_2_2_2_2_2_2_2_2_2_2_2_2_2_2_2_2_2_2_2_2_2_2_2_2_2_2_2

New Line.l(r:p1rdm686-p1rdt291lv) Units=km Length=0.0189717 bus1=p1rdt291lv.1.2 bus2=p1rdm686.1.2 switch=n enabled=y phases=2 Linecode=1P_OH_AL_2/0_Rucina_0_416_0_2_2_2_2_2_2_2_2_2_2_2_2_2_2_2_2_2_2_2_2_2_2_2_2_2_2_2_2_2

New Line.l(r:p1rdm687-p1rlv300) Units=km Length=0.0170996 bus1=p1rdm687.1.2 bus2=p1rlv300.1.2 switch=n enabled=y phases=2 Linecode=1P_OH_AL_2/0_Rucina_0_416_0_2_2_2_2_2_2_2_2_2_2_2_2_2_2_2_2_2_2_2_2_2_2_2_2_2_2_2_2_2

New Line.l(r:p1rdm687-p1rlv13426) Units=km Length=0.009059250000000001 bus1=p1rdm687.1.2 bus2=p1rlv13426.1.2 switch=n enabled=y phases=2 Linecode=1P_OH_AL_2/0_Rucina_0_416_0_2_2_2_2_2_2_2_2_2_2_2_2_2_2_2_2_2_2_2_2_2_2_2_2_2_2_2_2_2

New Line.l(r:p1rdm687-p1rdt292lv) Units=km Length=0.0119886 bus1=p1rdt292lv.1.2 bus2=p1rdm687.1.2 switch=n enabled=y phases=2 Linecode=1P_OH_AL_2/0_Rucina_0_416_0_2_2_2_2_2_2_2_2_2_2_2_2_2_2_2_2_2_2_2_2_2_2_2_2_2_2_2_2_2

New Line.l(r:p1rdm688-p1rlv6082) Units=km Length=0.028632400000000002 bus1=p1rdm688.1.2 bus2=p1rlv6082.1.2 switch=n enabled=y phases=2 Linecode=1P_OH_AL_4/0_Zuzara_0_416_0_2_2_2_2_2_2_2_2_2_2_2_2_2_2_2_2_2_2_2_2_2_2_2_2_2_2_2_2_2

New Line.l(r:p1rdm688-p1rdt292lv) Units=km Length=0.0306254 bus1=p1rdt292lv.1.2 bus2=p1rdm688.1.2 switch=n enabled=y phases=2 Linecode=1P_OH_AL_4/0_Zuzara_0_416_0_2_2_2_2_2_2_2_2_2_2_2_2_2_2_2_2_2_2_2_2_2_2_2_2_2_2_2_2_2

New Line.l(r:p1rdt418lv-p1rlv427) Units=km Length=0.0143794 bus1=p1rdt418lv.1.2 bus2=p1rlv427.1.2 switch=n enabled=y phases=2 Linecode=1P_OH_AL_2/0_Rucina_0_416_0_2_2_2_2_2_2_2_2_2_2_2_2_2_2_2_2_2_2_2_2_2_2_2_2_2_2_2_2_2

New Line.l(r:p1rdt418lv-p1rlv1376) Units=km Length=0.0378494 bus1=p1rdt418lv.1.2 bus2=p1rlv1376.1.2 switch=n enabled=y phases=2 Linecode=1P_OH_AL_4/0_Zuzara_0_416_0_2_2_2_2_2_2_2_2_2_2_2_2_2_2_2_2_2_2_2_2_2_2_2_2_2_2_2_2_2

New Line.l(r:p1rdt418lv-p1rlv11269) Units=km Length=0.0312958 bus1=p1rdt418lv.1.2 bus2=p1rlv11269.1.2 switch=n enabled=y phases=2 Linecode=1P_OH_AL_4/0_Zuzara_0_416_0_2_2_2_2_2_2_2_2_2_2_2_2_2_2_2_2_2_2_2_2_2_2_2_2_2_2_2_2_2

New Line.l(r:p1rdt427lv-p1rlv436) Units=km Length=0.0268322 bus1=p1rdt427lv.1.2 bus2=p1rlv436.1.2 switch=n enabled=y phases=2 Linecode=1P_OH_AL_2/0_Rucina_0_416_0_2_2_2_2_2_2_2_2_2_2_2_2_2_2_2_2_2_2_2_2_2_2_2_2_2_2_2_2_2

New Line.l(r:p1rdt427lv-p1rlv8436) Units=km Length=0.0268322 bus1=p1rdt427lv.1.2 bus2=p1rlv8436.1.2 switch=n enabled=y phases=2 Linecode=1P_OH_AL_2/0_Rucina_0_416_0_2_2_2_2_2_2_2_2_2_2_2_2_2_2_2_2_2_2_2_2_2_2_2_2_2_2_2_2_2

New Line.l(r:p1rdt539lv-p1rlv553) Units=km Length=0.001 bus1=p1rdt539lv.1.2 bus2=p1rlv553.1.2 switch=n enabled=y phases=2 Linecode=1P_OH_AL_4_Periwinkle_0_416_0_2_2_2_2_2_2_2_2_2_2_2_2_2_2_2_2_2_2_2_2_2_2_2_2_2_2_2_2_2

New Line.l(r:p1rdt670lv-p1rlv694) Units=km Length=0.0904372 bus1=p1rdt670lv.1.2 bus2=p1rlv694.1.2 switch=n enabled=y phases=2 Linecode=1P_OH_AL_4/0_Zuzara_0_416_0_2_2_2_2_2_2_2_2_2_2_2_2_2_2_2_2_2_2_2_2_2_2_2_2_2_2_2_2_2

New Line.l(r:p1rdt670lv-p1rlv7521) Units=km Length=0.0820684 bus1=p1rdt670lv.1.2 bus2=p1rlv7521.1.2 switch=n enabled=y phases=2 Linecode=1P_OH_AL_4/0_Zuzara_0_416_0_2_2_2_2_2_2_2_2_2_2_2_2_2_2_2_2_2_2_2_2_2_2_2_2_2_2_2_2_2

New Line.l(r:p1rdt670lv-p1rlv7664) Units=km Length=0.0913214 bus1=p1rdt670lv.1.2 bus2=p1rlv7664.1.2 switch=n enabled=y phases=2 Linecode=1P_OH_AL_4/0_Zuzara_0_416_0_2_2_2_2_2_2_2_2_2_2_2_2_2_2_2_2_2_2_2_2_2_2_2_2_2_2_2_2_2

New Line.l(r:p1rdt670lv-p1rlv13423) Units=km Length=0.0573184 bus1=p1rdt670lv.1.2 bus2=p1rlv13423.1.2 switch=n enabled=y phases=2 Linecode=1P_OH_AL_4/0_Zuzara_0_416_0_2_2_2_2_2_2_2_2_2_2_2_2_2_2_2_2_2_2_2_2_2_2_2_2_2_2_2_2_2

New Line.l(r:p1rdm1850-p1rlv852) Units=km Length=0.0388082 bus1=p1rdm1850.1.2 bus2=p1rlv852.1.2 switch=n enabled=y phases=2 Linecode=1P_OH_AL_4/0_Zuzara_0_416_0_2_2_2_2_2_2_2_2_2_2_2_2_2_2_2_2_2_2_2_2_2_2_2_2_2_2_2_2_2

New Line.l(r:p1rdm1850-p1rdt816lv) Units=km Length=0.0376167 bus1=p1rdt816lv.1.2 bus2=p1rdm1850.1.2 switch=n enabled=y phases=2 Linecode=1P_OH_AL_4/0_Zuzara_0_416_0_2_2_2_2_2_2_2_2_2_2_2_2_2_2_2_2_2_2_2_2_2_2_2_2_2_2_2_2_2

New Line.l(r:p1rdm1851-p1rlv10060) Units=km Length=0.0193423 bus1=p1rdm1851.1.2 bus2=p1rlv10060.1.2 switch=n enabled=y phases=2 Linecode=1P_OH_AL_2/0_Rucina_0_416_0_2_2_2_2_2_2_2_2_2_2_2_2_2_2_2_2_2_2_2_2_2_2_2_2_2_2_2_2_2

New Line.l(r:p1rdm1851-p1rdt816lv) Units=km Length=0.0188027 bus1=p1rdt816lv.1.2 bus2=p1rdm1851.1.2 switch=n enabled=y phases=2 Linecode=1P_OH_AL_2/0_Rucina_0_416_0_2_2_2_2_2_2_2_2_2_2_2_2_2_2_2_2_2_2_2_2_2_2_2_2_2_2_2_2_2

New Line.l(r:p1rdt939lv-p1rlv985) Units=km Length=0.0321654 bus1=p1rdt939lv.1.2 bus2=p1rlv985.1.2 switch=n enabled=y phases=2 Linecode=1P_OH_AL_4/0_Zuzara_0_416_0_2_2_2_2_2_2_2_2_2_2_2_2_2_2_2_2_2_2_2_2_2_2_2_2_2_2_2_2_2

New Line.l(r:p1rdm2163-p1rlv1003) Units=km Length=0.00791061 bus1=p1rdm2163.1.2 bus2=p1rlv1003.1.2 switch=n enabled=y phases=2 Linecode=1P_OH_AL_2/0_Rucina_0_416_0_2_2_2_2_2_2_2_2_2_2_2_2_2_2_2_2_2_2_2_2_2_2_2_2_2_2_2_2_2

New Line.l(r:p1rdm2163-p1rdt955lv) Units=km Length=0.0537597 bus1=p1rdt955lv.1.2 bus2=p1rdm2163.1.2 switch=n enabled=y phases=2 Linecode=1P_OH_AL_4/0_Zuzara_0_416_0_2_2_2_2_2_2_2_2_2_2_2_2_2_2_2_2_2_2_2_2_2_2_2_2_2_2_2_2_2

New Line.l(r:p1rdm2164-p1rlv10733) Units=km Length=0.00424264 bus1=p1rdm2164.1.2 bus2=p1rlv10733.1.2 switch=n enabled=y phases=2 Linecode=1P_OH_AL_2/0_Rucina_0_416_0_2_2_2_2_2_2_2_2_2_2_2_2_2_2_2_2_2_2_2_2_2_2_2_2_2_2_2_2_2

New Line.l(r:p1rdm2164-p1rdt955lv) Units=km Length=0.0568285 bus1=p1rdt955lv.1.2 bus2=p1rdm2164.1.2 switch=n enabled=y phases=2 Linecode=1P_OH_AL_4/0_Zuzara_0_416_0_2_2_2_2_2_2_2_2_2_2_2_2_2_2_2_2_2_2_2_2_2_2_2_2_2_2_2_2_2

New Line.l(r:p1rdt1048lv-p1rlv1374) Units=km Length=0.00801524 bus1=p1rdt1048lv.1.2 bus2=p1rlv1374.1.2 switch=n enabled=y phases=2 Linecode=1P_OH_AL_2/0_Rucina_0_416_0_2_2_2_2_2_2_2_2_2_2_2_2_2_2_2_2_2_2_2_2_2_2_2_2_2_2_2_2_2

New Line.l(r:p1rdm2349-p1rlv1107) Units=km Length=0.00568793 bus1=p1rdm2349.1.2 bus2=p1rlv1107.1.2 switch=n enabled=y phases=2 Linecode=1P_OH_AL_2/0_Rucina_0_416_0_2_2_2_2_2_2_2_2_2_2_2_2_2_2_2_2_2_2_2_2_2_2_2_2_2_2_2_2_2

New Line.l(r:p1rdm2349-p1rdt1048lv) Units=km Length=0.0194008 bus1=p1rdt1048lv.1.2 bus2=p1rdm2349.1.2 switch=n enabled=y phases=2 Linecode=1P_OH_AL_2/0_Rucina_0_416_0_2_2_2_2_2_2_2_2_2_2_2_2_2_2_2_2_2_2_2_2_2_2_2_2_2_2_2_2_2

New Line.l(r:p1rdt1050lv-p1rlv1109) Units=km Length=0.001 bus1=p1rdt1050lv.1.2 bus2=p1rlv1109.1.2 switch=n enabled=y phases=2 Linecode=1P_OH_AL_4_Periwinkle_0_416_0_2_2_2_2_2_2_2_2_2_2_2_2_2_2_2_2_2_2_2_2_2_2_2_2_2_2_2_2_2

New Line.l(r:p1rdt1288lv-p1rlv1375) Units=km Length=0.001 bus1=p1rdt1288lv.1.2 bus2=p1rlv1375.1.2 switch=n enabled=y phases=2 Linecode=1P_OH_AL_4_Periwinkle_0_416_0_2_2_2_2_2_2_2_2_2_2_2_2_2_2_2_2_2_2_2_2_2_2_2_2_2_2_2_2_2

New Line.l(r:p1rdt1413lv-p1rlv1517) Units=km Length=0.0233398 bus1=p1rdt1413lv.1.2 bus2=p1rlv1517.1.2 switch=n enabled=y phases=2 Linecode=1P_OH_AL_2/0_Rucina_0_416_0_2_2_2_2_2_2_2_2_2_2_2_2_2_2_2_2_2_2_2_2_2_2_2_2_2_2_2_2_2

New Line.l(r:p1rdt1413lv-p1rlv12245) Units=km Length=0.0233398 bus1=p1rdt1413lv.1.2 bus2=p1rlv12245.1.2 switch=n enabled=y phases=2 Linecode=1P_OH_AL_2/0_Rucina_0_416_0_2_2_2_2_2_2_2_2_2_2_2_2_2_2_2_2_2_2_2_2_2_2_2_2_2_2_2_2_2

New Line.l(r:p1rdt1414lv-p1rlv1518) Units=km Length=0.0472019 bus1=p1rdt1414lv.1.2 bus2=p1rlv1518.1.2 switch=n enabled=y phases=2 Linecode=1P_UG_AL_1/0_Brenau_0_416_0_2_2_2_2_2_2_2_2_2_2_2_2_2_2_2_2_2_2_2_2_2_2_2_2_2_2_2_2_2

New Line.l(r:p1rdt1414lv-p1rlv8975) Units=km Length=0.0472019 bus1=p1rdt1414lv.1.2 bus2=p1rlv8975.1.2 switch=n enabled=y phases=2 Linecode=1P_UG_AL_1/0_Brenau_0_416_0_2_2_2_2_2_2_2_2_2_2_2_2_2_2_2_2_2_2_2_2_2_2_2_2_2_2_2_2_2

New Line.l(r:p1rdm3112-p1rlv1519) Units=km Length=0.09760850000000001 bus1=p1rdm3112.1.2 bus2=p1rlv1519.1.2 switch=n enabled=y phases=2 Linecode=1P_OH_AL_4/0_Zuzara_0_416_0_2_2_2_2_2_2_2_2_2_2_2_2_2_2_2_2_2_2_2_2_2_2_2_2_2_2_2_2_2

New Line.l(r:p1rdm3112-p1rdt1415lv) Units=km Length=0.017472 bus1=p1rdt1415lv.1.2 bus2=p1rdm3112.1.2 switch=n enabled=y phases=2 Linecode=1P_OH_AL_2/0_Rucina_0_416_0_2_2_2_2_2_2_2_2_2_2_2_2_2_2_2_2_2_2_2_2_2_2_2_2_2_2_2_2_2

New Line.l(r:p1rdm3113-p1rlv8976) Units=km Length=0.05557480000000001 bus1=p1rdm3113.1.2 bus2=p1rlv8976.1.2 switch=n enabled=y phases=2 Linecode=1P_OH_AL_4/0_Zuzara_0_416_0_2_2_2_2_2_2_2_2_2_2_2_2_2_2_2_2_2_2_2_2_2_2_2_2_2_2_2_2_2

New Line.l(r:p1rdm3113-p1rdt1415lv) Units=km Length=0.0174632 bus1=p1rdt1415lv.1.2 bus2=p1rdm3113.1.2 switch=n enabled=y phases=2 Linecode=1P_OH_AL_2/0_Rucina_0_416_0_2_2_2_2_2_2_2_2_2_2_2_2_2_2_2_2_2_2_2_2_2_2_2_2_2_2_2_2_2

New Line.l(r:p1rdt1416lv-p1rlv1520) Units=km Length=0.0121446 bus1=p1rdt1416lv.1.2 bus2=p1rlv1520.1.2 switch=n enabled=y phases=2 Linecode=1P_OH_AL_2/0_Rucina_0_416_0_2_2_2_2_2_2_2_2_2_2_2_2_2_2_2_2_2_2_2_2_2_2_2_2_2_2_2_2_2

New Line.l(r:p1rdt1416lv-p1rlv3516) Units=km Length=0.0121446 bus1=p1rdt1416lv.1.2 bus2=p1rlv3516.1.2 switch=n enabled=y phases=2 Linecode=1P_OH_AL_2/0_Rucina_0_416_0_2_2_2_2_2_2_2_2_2_2_2_2_2_2_2_2_2_2_2_2_2_2_2_2_2_2_2_2_2

New Line.l(r:p1rdm3347-p1rlv1651) Units=km Length=0.0204591 bus1=p1rdm3347.1.2 bus2=p1rlv1651.1.2 switch=n enabled=y phases=2 Linecode=1P_OH_AL_2/0_Rucina_0_416_0_2_2_2_2_2_2_2_2_2_2_2_2_2_2_2_2_2_2_2_2_2_2_2_2_2_2_2_2_2

New Line.l(r:p1rdm3347-p1rdt1525lv) Units=km Length=0.0705881 bus1=p1rdt1525lv.1.2 bus2=p1rdm3347.1.2 switch=n enabled=y phases=2 Linecode=1P_OH_AL_4/0_Zuzara_0_416_0_2_2_2_2_2_2_2_2_2_2_2_2_2_2_2_2_2_2_2_2_2_2_2_2_2_2_2_2_2

New Line.l(r:p1rdm3349-p1rlv7111) Units=km Length=0.0170638 bus1=p1rdm3349.1.2 bus2=p1rlv7111.1.2 switch=n enabled=y phases=2 Linecode=1P_UG_AL_1/0_Brenau_0_416_0_2_2_2_2_2_2_2_2_2_2_2_2_2_2_2_2_2_2_2_2_2_2_2_2_2_2_2_2_2

New Line.l(r:p1rdm3348-p1rlv6584) Units=km Length=0.00940394 bus1=p1rdm3348.1.2 bus2=p1rlv6584.1.2 switch=n enabled=y phases=2 Linecode=1P_UG_AL_1/0_Brenau_0_416_0_2_2_2_2_2_2_2_2_2_2_2_2_2_2_2_2_2_2_2_2_2_2_2_2_2_2_2_2_2

New Line.l(r:p1rdm3348-p1rdm3349) Units=km Length=0.0284518 bus1=p1rdm3349.1.2 bus2=p1rdm3348.1.2 switch=n enabled=y phases=2 Linecode=1P_UG_AL_1/0_Brenau_0_416_0_2_2_2_2_2_2_2_2_2_2_2_2_2_2_2_2_2_2_2_2_2_2_2_2_2_2_2_2_2

New Line.l(r:p1rdm3349-p1rdt1525lv) Units=km Length=0.00948095 bus1=p1rdt1525lv.1.2 bus2=p1rdm3349.1.2 switch=n enabled=y phases=2 Linecode=1P_UG_AL_1/0_Brenau_0_416_0_2_2_2_2_2_2_2_2_2_2_2_2_2_2_2_2_2_2_2_2_2_2_2_2_2_2_2_2_2

New Line.l(r:p1rdt1627lv-p1rlv1770) Units=km Length=0.0289125 bus1=p1rdt1627lv.1.2 bus2=p1rlv1770.1.2 switch=n enabled=y phases=2 Linecode=1P_OH_AL_4/0_Zuzara_0_416_0_2_2_2_2_2_2_2_2_2_2_2_2_2_2_2_2_2_2_2_2_2_2_2_2_2_2_2_2_2

New Line.l(r:p1rdt1736lv-p1rlv1902) Units=km Length=0.0404354 bus1=p1rdt1736lv.1.2 bus2=p1rlv1902.1.2 switch=n enabled=y phases=2 Linecode=1P_OH_AL_4/0_Zuzara_0_416_0_2_2_2_2_2_2_2_2_2_2_2_2_2_2_2_2_2_2_2_2_2_2_2_2_2_2_2_2_2

New Line.l(r:p1rdt1736lv-p1rlv8837) Units=km Length=0.0966756 bus1=p1rdt1736lv.1.2 bus2=p1rlv8837.1.2 switch=n enabled=y phases=2 Linecode=1P_OH_AL_4/0_Zuzara_0_416_0_2_2_2_2_2_2_2_2_2_2_2_2_2_2_2_2_2_2_2_2_2_2_2_2_2_2_2_2_2

New Line.l(r:p1rdt1737lv-p1rlv1903) Units=km Length=0.0102453 bus1=p1rdt1737lv.1.2 bus2=p1rlv1903.1.2 switch=n enabled=y phases=2 Linecode=1P_OH_AL_2/0_Rucina_0_416_0_2_2_2_2_2_2_2_2_2_2_2_2_2_2_2_2_2_2_2_2_2_2_2_2_2_2_2_2_2

New Line.l(r:p1rdt1737lv-p1rlv6335) Units=km Length=0.0515857 bus1=p1rdt1737lv.1.2 bus2=p1rlv6335.1.2 switch=n enabled=y phases=2 Linecode=1P_OH_AL_4/0_Zuzara_0_416_0_2_2_2_2_2_2_2_2_2_2_2_2_2_2_2_2_2_2_2_2_2_2_2_2_2_2_2_2_2

New Line.l(r:p1rdt1737lv-p1rlv8711) Units=km Length=0.055641300000000005 bus1=p1rdt1737lv.1.2 bus2=p1rlv8711.1.2 switch=n enabled=y phases=2 Linecode=1P_OH_AL_4/0_Zuzara_0_416_0_2_2_2_2_2_2_2_2_2_2_2_2_2_2_2_2_2_2_2_2_2_2_2_2_2_2_2_2_2

New Line.l(r:p1rdt1741lv-p1rlv1908) Units=km Length=0.001 bus1=p1rdt1741lv.1.2 bus2=p1rlv1908.1.2 switch=n enabled=y phases=2 Linecode=1P_OH_AL_4_Periwinkle_0_416_0_2_2_2_2_2_2_2_2_2_2_2_2_2_2_2_2_2_2_2_2_2_2_2_2_2_2_2_2_2

New Line.l(r:p1rdt1742lv-p1rlv1909) Units=km Length=0.047436 bus1=p1rdt1742lv.1.2 bus2=p1rlv1909.1.2 switch=n enabled=y phases=2 Linecode=1P_OH_AL_4/0_Zuzara_0_416_0_2_2_2_2_2_2_2_2_2_2_2_2_2_2_2_2_2_2_2_2_2_2_2_2_2_2_2_2_2

New Line.l(r:p1rdm4491-p1rlv2327) Units=km Length=0.00734025 bus1=p1rdm4491.1.2 bus2=p1rlv2327.1.2 switch=n enabled=y phases=2 Linecode=1P_OH_AL_2/0_Rucina_0_416_0_2_2_2_2_2_2_2_2_2_2_2_2_2_2_2_2_2_2_2_2_2_2_2_2_2_2_2_2_2

New Line.l(r:p1rdm4491-p1rdt2089lv) Units=km Length=0.0181026 bus1=p1rdt2089lv.1.2 bus2=p1rdm4491.1.2 switch=n enabled=y phases=2 Linecode=1P_OH_AL_2/0_Rucina_0_416_0_2_2_2_2_2_2_2_2_2_2_2_2_2_2_2_2_2_2_2_2_2_2_2_2_2_2_2_2_2

New Line.l(r:p1rdm4492-p1rlv13028) Units=km Length=0.00785685 bus1=p1rdm4492.1.2 bus2=p1rlv13028.1.2 switch=n enabled=y phases=2 Linecode=1P_OH_AL_2/0_Rucina_0_416_0_2_2_2_2_2_2_2_2_2_2_2_2_2_2_2_2_2_2_2_2_2_2_2_2_2_2_2_2_2

New Line.l(r:p1rdm4492-p1rdt2089lv) Units=km Length=0.0181044 bus1=p1rdt2089lv.1.2 bus2=p1rdm4492.1.2 switch=n enabled=y phases=2 Linecode=1P_OH_AL_2/0_Rucina_0_416_0_2_2_2_2_2_2_2_2_2_2_2_2_2_2_2_2_2_2_2_2_2_2_2_2_2_2_2_2_2

New Line.l(r:p1rdt2411lv-p1rlv2724) Units=km Length=0.06436570000000001 bus1=p1rdt2411lv.1.2 bus2=p1rlv2724.1.2 switch=n enabled=y phases=2 Linecode=1P_OH_AL_4/0_Zuzara_0_416_0_2_2_2_2_2_2_2_2_2_2_2_2_2_2_2_2_2_2_2_2_2_2_2_2_2_2_2_2_2

New Line.l(r:p1rdt2412lv-p1rlv2725) Units=km Length=0.040576900000000006 bus1=p1rdt2412lv.1.2 bus2=p1rlv2725.1.2 switch=n enabled=y phases=2 Linecode=1P_OH_AL_4/0_Zuzara_0_416_0_2_2_2_2_2_2_2_2_2_2_2_2_2_2_2_2_2_2_2_2_2_2_2_2_2_2_2_2_2

New Line.l(r:p1rdt2412lv-p1rlv10859) Units=km Length=0.0906846 bus1=p1rdt2412lv.1.2 bus2=p1rlv10859.1.2 switch=n enabled=y phases=2 Linecode=1P_OH_AL_4/0_Zuzara_0_416_0_2_2_2_2_2_2_2_2_2_2_2_2_2_2_2_2_2_2_2_2_2_2_2_2_2_2_2_2_2

New Line.l(r:p1rdt2615lv-p1rlv2983) Units=km Length=0.001 bus1=p1rdt2615lv.1.2 bus2=p1rlv2983.1.2 switch=n enabled=y phases=2 Linecode=1P_OH_AL_4_Periwinkle_0_416_0_2_2_2_2_2_2_2_2_2_2_2_2_2_2_2_2_2_2_2_2_2_2_2_2_2_2_2_2_2

New Line.l(r:p1rdt2718lv-p1rlv3110) Units=km Length=0.03694530000000001 bus1=p1rdt2718lv.1.2 bus2=p1rlv3110.1.2 switch=n enabled=y phases=2 Linecode=1P_OH_AL_4/0_Zuzara_0_416_0_2_2_2_2_2_2_2_2_2_2_2_2_2_2_2_2_2_2_2_2_2_2_2_2_2_2_2_2_2

New Line.l(r:p1rdt2718lv-p1rlv6334)_s0 Units=km Length=0.0192329 bus1=p1rdt2718lv.1.2 bus2=p1rdt2718lv-p1rlv6334x.1.2 switch=n enabled=y phases=2 Linecode=1P_OH_AL_2/0_Rucina_0_416_0_2_2_2_2_2_2_2_2_2_2_2_2_2_2_2_2_2_2_2_2_2_2_2_2_2_2_2_2_2

New Line.l(r:p1rdt2718lv-p1rlv6334)_s1 Units=km Length=0.006930470000000001 bus1=p1rdt2718lv-p1rlv6334x.1.2 bus2=p1rlv6334.1.2 switch=n enabled=y phases=2 Linecode=1P_OH_AL_2/0_Rucina_0_416_0_2_2_2_2_2_2_2_2_2_2_2_2_2_2_2_2_2_2_2_2_2_2_2_2_2_2_2_2_2

New Line.l(r:p1rdt2718lv-p1rlv9928)_s0 Units=km Length=0.0275919 bus1=p1rdt2718lv.1.2 bus2=p1rdt2718lv-p1rlv9928x.1.2 switch=n enabled=y phases=2 Linecode=1P_OH_AL_4/0_Zuzara_0_416_0_2_2_2_2_2_2_2_2_2_2_2_2_2_2_2_2_2_2_2_2_2_2_2_2_2_2_2_2_2

New Line.l(r:p1rdt2718lv-p1rlv9928)_s1 Units=km Length=0.00942889 bus1=p1rdt2718lv-p1rlv9928x.1.2 bus2=p1rlv9928.1.2 switch=n enabled=y phases=2 Linecode=1P_OH_AL_2/0_Rucina_0_416_0_2_2_2_2_2_2_2_2_2_2_2_2_2_2_2_2_2_2_2_2_2_2_2_2_2_2_2_2_2

New Line.l(r:p1rdt2813lv-p1rlv3234) Units=km Length=0.0686801 bus1=p1rdt2813lv.1.2 bus2=p1rlv3234.1.2 switch=n enabled=y phases=2 Linecode=1P_OH_AL_4/0_Zuzara_0_416_0_2_2_2_2_2_2_2_2_2_2_2_2_2_2_2_2_2_2_2_2_2_2_2_2_2_2_2_2_2

New Line.l(r:p1rdt2813lv-p1rlv10858) Units=km Length=0.0997818 bus1=p1rdt2813lv.1.2 bus2=p1rlv10858.1.2 switch=n enabled=y phases=2 Linecode=1P_OH_AL_4/0_Zuzara_0_416_0_2_2_2_2_2_2_2_2_2_2_2_2_2_2_2_2_2_2_2_2_2_2_2_2_2_2_2_2_2

New Line.l(r:p1rdt2814lv-p1rlv3235) Units=km Length=0.041497 bus1=p1rdt2814lv.1.2 bus2=p1rlv3235.1.2 switch=n enabled=y phases=2 Linecode=1P_OH_AL_4/0_Zuzara_0_416_0_2_2_2_2_2_2_2_2_2_2_2_2_2_2_2_2_2_2_2_2_2_2_2_2_2_2_2_2_2

New Line.l(r:p1rdt2820lv-p1rlv3246) Units=km Length=0.020089600000000003 bus1=p1rdt2820lv.1.2 bus2=p1rlv3246.1.2 switch=n enabled=y phases=2 Linecode=1P_OH_AL_2/0_Rucina_0_416_0_2_2_2_2_2_2_2_2_2_2_2_2_2_2_2_2_2_2_2_2_2_2_2_2_2_2_2_2_2

New Line.l(r:p1rdt2820lv-p1rlv8443) Units=km Length=0.020089600000000003 bus1=p1rdt2820lv.1.2 bus2=p1rlv8443.1.2 switch=n enabled=y phases=2 Linecode=1P_OH_AL_2/0_Rucina_0_416_0_2_2_2_2_2_2_2_2_2_2_2_2_2_2_2_2_2_2_2_2_2_2_2_2_2_2_2_2_2

New Line.l(r:p1rdt3131lv-p1rlv11414) Units=km Length=0.0224925 bus1=p1rdt3131lv.1.2 bus2=p1rlv11414.1.2 switch=n enabled=y phases=2 Linecode=1P_OH_AL_2/0_Rucina_0_416_0_2_2_2_2_2_2_2_2_2_2_2_2_2_2_2_2_2_2_2_2_2_2_2_2_2_2_2_2_2

New Line.l(r:p1rdm6437-p1rlv3668) Units=km Length=0.046006 bus1=p1rdm6437.1.2 bus2=p1rlv3668.1.2 switch=n enabled=y phases=2 Linecode=1P_OH_AL_4/0_Zuzara_0_416_0_2_2_2_2_2_2_2_2_2_2_2_2_2_2_2_2_2_2_2_2_2_2_2_2_2_2_2_2_2

New Line.l(r:p1rdm6437-p1rdt3131lv) Units=km Length=0.0172003 bus1=p1rdt3131lv.1.2 bus2=p1rdm6437.1.2 switch=n enabled=y phases=2 Linecode=1P_OH_AL_2/0_Rucina_0_416_0_2_2_2_2_2_2_2_2_2_2_2_2_2_2_2_2_2_2_2_2_2_2_2_2_2_2_2_2_2

New Line.l(r:p1rdt3315lv-p1rlv3911) Units=km Length=0.0289121 bus1=p1rdt3315lv.1.2 bus2=p1rlv3911.1.2 switch=n enabled=y phases=2 Linecode=1P_OH_AL_4/0_Zuzara_0_416_0_2_2_2_2_2_2_2_2_2_2_2_2_2_2_2_2_2_2_2_2_2_2_2_2_2_2_2_2_2

New Line.l(r:p1rdt3315lv-p1rlv5542) Units=km Length=0.04907330000000001 bus1=p1rdt3315lv.1.2 bus2=p1rlv5542.1.2 switch=n enabled=y phases=2 Linecode=1P_OH_AL_4/0_Zuzara_0_416_0_2_2_2_2_2_2_2_2_2_2_2_2_2_2_2_2_2_2_2_2_2_2_2_2_2_2_2_2_2

New Line.l(r:p1rdt3315lv-p1rlv7242) Units=km Length=0.0362082 bus1=p1rdt3315lv.1.2 bus2=p1rlv7242.1.2 switch=n enabled=y phases=2 Linecode=1P_OH_AL_4/0_Zuzara_0_416_0_2_2_2_2_2_2_2_2_2_2_2_2_2_2_2_2_2_2_2_2_2_2_2_2_2_2_2_2_2

New Line.l(r:p1rdt3315lv-p1rlv9236) Units=km Length=0.00755988 bus1=p1rdt3315lv.1.2 bus2=p1rlv9236.1.2 switch=n enabled=y phases=2 Linecode=1P_OH_AL_2/0_Rucina_0_416_0_2_2_2_2_2_2_2_2_2_2_2_2_2_2_2_2_2_2_2_2_2_2_2_2_2_2_2_2_2

New Line.l(r:p1rdt3315lv-p1rlv11152) Units=km Length=0.04342220000000001 bus1=p1rdt3315lv.1.2 bus2=p1rlv11152.1.2 switch=n enabled=y phases=2 Linecode=1P_OH_AL_4/0_Zuzara_0_416_0_2_2_2_2_2_2_2_2_2_2_2_2_2_2_2_2_2_2_2_2_2_2_2_2_2_2_2_2_2

New Line.l(r:p1rdt3315lv-p1rlv13424) Units=km Length=0.0555929 bus1=p1rdt3315lv.1.2 bus2=p1rlv13424.1.2 switch=n enabled=y phases=2 Linecode=1P_OH_AL_4/0_Zuzara_0_416_0_2_2_2_2_2_2_2_2_2_2_2_2_2_2_2_2_2_2_2_2_2_2_2_2_2_2_2_2_2

New Line.l(r:p1rdt3316lv-p1rlv3912) Units=km Length=0.00860201 bus1=p1rdt3316lv.1.2 bus2=p1rlv3912.1.2 switch=n enabled=y phases=2 Linecode=1P_OH_AL_2/0_Rucina_0_416_0_2_2_2_2_2_2_2_2_2_2_2_2_2_2_2_2_2_2_2_2_2_2_2_2_2_2_2_2_2

New Line.l(r:p1rdt3316lv-p1rlv5813) Units=km Length=0.00860201 bus1=p1rdt3316lv.1.2 bus2=p1rlv5813.1.2 switch=n enabled=y phases=2 Linecode=1P_OH_AL_2/0_Rucina_0_416_0_2_2_2_2_2_2_2_2_2_2_2_2_2_2_2_2_2_2_2_2_2_2_2_2_2_2_2_2_2

New Line.l(r:p1rdt3406lv-p1rlv4041) Units=km Length=0.0421453 bus1=p1rdt3406lv.1.2 bus2=p1rlv4041.1.2 switch=n enabled=y phases=2 Linecode=1P_OH_AL_4/0_Zuzara_0_416_0_2_2_2_2_2_2_2_2_2_2_2_2_2_2_2_2_2_2_2_2_2_2_2_2_2_2_2_2_2

New Line.l(r:p1rdm6929-p1rlv10584) Units=km Length=0.0349237 bus1=p1rdm6929.1.2 bus2=p1rlv10584.1.2 switch=n enabled=y phases=2 Linecode=1P_OH_AL_4/0_Zuzara_0_416_0_2_2_2_2_2_2_2_2_2_2_2_2_2_2_2_2_2_2_2_2_2_2_2_2_2_2_2_2_2

New Line.l(r:p1rdm6929-p1rdt3406lv) Units=km Length=0.0181301 bus1=p1rdt3406lv.1.2 bus2=p1rdm6929.1.2 switch=n enabled=y phases=2 Linecode=1P_OH_AL_2/0_Rucina_0_416_0_2_2_2_2_2_2_2_2_2_2_2_2_2_2_2_2_2_2_2_2_2_2_2_2_2_2_2_2_2

New Line.l(r:p1rdt3407lv-p1rlv4042) Units=km Length=0.0466184 bus1=p1rdt3407lv.1.2 bus2=p1rlv4042.1.2 switch=n enabled=y phases=2 Linecode=1P_OH_AL_4/0_Zuzara_0_416_0_2_2_2_2_2_2_2_2_2_2_2_2_2_2_2_2_2_2_2_2_2_2_2_2_2_2_2_2_2

New Line.l(r:p1rdt3408lv-p1rlv5417) Units=km Length=0.0458954 bus1=p1rdt3408lv.1.2 bus2=p1rlv5417.1.2 switch=n enabled=y phases=2 Linecode=1P_OH_AL_4/0_Zuzara_0_416_0_2_2_2_2_2_2_2_2_2_2_2_2_2_2_2_2_2_2_2_2_2_2_2_2_2_2_2_2_2

New Line.l(r:p1rdt3408lv-p1rlv10179) Units=km Length=0.0612627 bus1=p1rdt3408lv.1.2 bus2=p1rlv10179.1.2 switch=n enabled=y phases=2 Linecode=1P_OH_AL_4/0_Zuzara_0_416_0_2_2_2_2_2_2_2_2_2_2_2_2_2_2_2_2_2_2_2_2_2_2_2_2_2_2_2_2_2

New Line.l(r:p1rdm6931-p1rlv4043) Units=km Length=0.0190415 bus1=p1rdm6931.1.2 bus2=p1rlv4043.1.2 switch=n enabled=y phases=2 Linecode=1P_OH_AL_2/0_Rucina_0_416_0_2_2_2_2_2_2_2_2_2_2_2_2_2_2_2_2_2_2_2_2_2_2_2_2_2_2_2_2_2

New Line.l(r:p1rdm6931-p1rdt3408lv) Units=km Length=0.014227100000000001 bus1=p1rdt3408lv.1.2 bus2=p1rdm6931.1.2 switch=n enabled=y phases=2 Linecode=1P_OH_AL_2/0_Rucina_0_416_0_2_2_2_2_2_2_2_2_2_2_2_2_2_2_2_2_2_2_2_2_2_2_2_2_2_2_2_2_2

New Line.l(r:p1rdt3600lv-p1rlv4317) Units=km Length=0.08471550000000001 bus1=p1rdt3600lv.1.2 bus2=p1rlv4317.1.2 switch=n enabled=y phases=2 Linecode=1P_OH_AL_4/0_Zuzara_0_416_0_2_2_2_2_2_2_2_2_2_2_2_2_2_2_2_2_2_2_2_2_2_2_2_2_2_2_2_2_2

New Line.l(r:p1rdt3601lv-p1rlv4318) Units=km Length=0.0208935 bus1=p1rdt3601lv.1.2 bus2=p1rlv4318.1.2 switch=n enabled=y phases=2 Linecode=1P_OH_AL_2/0_Rucina_0_416_0_2_2_2_2_2_2_2_2_2_2_2_2_2_2_2_2_2_2_2_2_2_2_2_2_2_2_2_2_2

New Line.l(r:p1rdt3601lv-p1rlv13425) Units=km Length=0.0208935 bus1=p1rdt3601lv.1.2 bus2=p1rlv13425.1.2 switch=n enabled=y phases=2 Linecode=1P_OH_AL_2/0_Rucina_0_416_0_2_2_2_2_2_2_2_2_2_2_2_2_2_2_2_2_2_2_2_2_2_2_2_2_2_2_2_2_2

New Line.l(r:p1rdt3709lv-p1rlv4477) Units=km Length=0.0103661 bus1=p1rdt3709lv.1.2 bus2=p1rlv4477.1.2 switch=n enabled=y phases=2 Linecode=1P_OH_AL_2/0_Rucina_0_416_0_2_2_2_2_2_2_2_2_2_2_2_2_2_2_2_2_2_2_2_2_2_2_2_2_2_2_2_2_2

New Line.l(r:p1rdm7451-p1rlv6451) Units=km Length=0.0372188 bus1=p1rdm7451.1.2 bus2=p1rlv6451.1.2 switch=n enabled=y phases=2 Linecode=1P_OH_AL_4/0_Zuzara_0_416_0_2_2_2_2_2_2_2_2_2_2_2_2_2_2_2_2_2_2_2_2_2_2_2_2_2_2_2_2_2

New Line.l(r:p1rdm7451-p1rdt3709lv) Units=km Length=0.0192035 bus1=p1rdt3709lv.1.2 bus2=p1rdm7451.1.2 switch=n enabled=y phases=2 Linecode=1P_OH_AL_2/0_Rucina_0_416_0_2_2_2_2_2_2_2_2_2_2_2_2_2_2_2_2_2_2_2_2_2_2_2_2_2_2_2_2_2

New Line.l(r:p1rdt3893lv-p1rlv4750) Units=km Length=0.06447 bus1=p1rdt3893lv.1.2 bus2=p1rlv4750.1.2 switch=n enabled=y phases=2 Linecode=1P_OH_AL_4/0_Zuzara_0_416_0_2_2_2_2_2_2_2_2_2_2_2_2_2_2_2_2_2_2_2_2_2_2_2_2_2_2_2_2_2

New Line.l(r:p1rdt3893lv-p1rlv9235) Units=km Length=0.0884242 bus1=p1rdt3893lv.1.2 bus2=p1rlv9235.1.2 switch=n enabled=y phases=2 Linecode=1P_OH_AL_4/0_Zuzara_0_416_0_2_2_2_2_2_2_2_2_2_2_2_2_2_2_2_2_2_2_2_2_2_2_2_2_2_2_2_2_2

New Line.l(r:p1rdt3996lv-p1rlv4907) Units=km Length=0.03727690000000001 bus1=p1rdt3996lv.1.2 bus2=p1rlv4907.1.2 switch=n enabled=y phases=2 Linecode=1P_OH_AL_4/0_Zuzara_0_416_0_2_2_2_2_2_2_2_2_2_2_2_2_2_2_2_2_2_2_2_2_2_2_2_2_2_2_2_2_2

New Line.l(r:p1rdt4074lv-p1rlv5027) Units=km Length=0.00820039 bus1=p1rdt4074lv.1.2 bus2=p1rlv5027.1.2 switch=n enabled=y phases=2 Linecode=1P_OH_AL_2/0_Rucina_0_416_0_2_2_2_2_2_2_2_2_2_2_2_2_2_2_2_2_2_2_2_2_2_2_2_2_2_2_2_2_2

New Line.l(r:p1rdt4074lv-p1rlv5150) Units=km Length=0.0220761 bus1=p1rdt4074lv.1.2 bus2=p1rlv5150.1.2 switch=n enabled=y phases=2 Linecode=1P_OH_AL_2/0_Rucina_0_416_0_2_2_2_2_2_2_2_2_2_2_2_2_2_2_2_2_2_2_2_2_2_2_2_2_2_2_2_2_2

New Line.l(r:p1rdt4315lv-p1rlv5416) Units=km Length=0.0421763 bus1=p1rdt4315lv.1.2 bus2=p1rlv5416.1.2 switch=n enabled=y phases=2 Linecode=1P_OH_AL_4/0_Zuzara_0_416_0_2_2_2_2_2_2_2_2_2_2_2_2_2_2_2_2_2_2_2_2_2_2_2_2_2_2_2_2_2

New Line.l(r:p1rdt4315lv-p1rlv10059) Units=km Length=0.0361671 bus1=p1rdt4315lv.1.2 bus2=p1rlv10059.1.2 switch=n enabled=y phases=2 Linecode=1P_OH_AL_4/0_Zuzara_0_416_0_2_2_2_2_2_2_2_2_2_2_2_2_2_2_2_2_2_2_2_2_2_2_2_2_2_2_2_2_2

New Line.l(r:p1rdt4315lv-p1rlv12106) Units=km Length=0.0100257 bus1=p1rdt4315lv.1.2 bus2=p1rlv12106.1.2 switch=n enabled=y phases=2 Linecode=1P_OH_AL_2/0_Rucina_0_416_0_2_2_2_2_2_2_2_2_2_2_2_2_2_2_2_2_2_2_2_2_2_2_2_2_2_2_2_2_2

New Line.l(r:p1rdt4320lv-p1rlv5428) Units=km Length=0.0247538 bus1=p1rdt4320lv.1.2 bus2=p1rlv5428.1.2 switch=n enabled=y phases=2 Linecode=1P_OH_AL_2/0_Rucina_0_416_0_2_2_2_2_2_2_2_2_2_2_2_2_2_2_2_2_2_2_2_2_2_2_2_2_2_2_2_2_2

New Line.l(r:p1rdt4484lv-p1rlv5694) Units=km Length=0.0386907 bus1=p1rdt4484lv.1.2 bus2=p1rlv5694.1.2 switch=n enabled=y phases=2 Linecode=1P_OH_AL_4/0_Zuzara_0_416_0_2_2_2_2_2_2_2_2_2_2_2_2_2_2_2_2_2_2_2_2_2_2_2_2_2_2_2_2_2

New Line.l(r:p1rdt4792lv-p1rlv6201) Units=km Length=0.001 bus1=p1rdt4792lv.1.2 bus2=p1rlv6201.1.2 switch=n enabled=y phases=2 Linecode=1P_OH_AL_4_Periwinkle_0_416_0_2_2_2_2_2_2_2_2_2_2_2_2_2_2_2_2_2_2_2_2_2_2_2_2_2_2_2_2_2

New Line.l(r:p1rdt5009lv-p1rlv6569) Units=km Length=0.0152755 bus1=p1rdt5009lv.1.2 bus2=p1rlv6569.1.2 switch=n enabled=y phases=2 Linecode=1P_OH_AL_2/0_Rucina_0_416_0_2_2_2_2_2_2_2_2_2_2_2_2_2_2_2_2_2_2_2_2_2_2_2_2_2_2_2_2_2

New Line.l(r:p1rdt5009lv-p1rlv10856) Units=km Length=0.0152755 bus1=p1rdt5009lv.1.2 bus2=p1rlv10856.1.2 switch=n enabled=y phases=2 Linecode=1P_OH_AL_2/0_Rucina_0_416_0_2_2_2_2_2_2_2_2_2_2_2_2_2_2_2_2_2_2_2_2_2_2_2_2_2_2_2_2_2

New Line.l(r:p1rdt5010lv-p1rlv9350) Units=km Length=0.0758674 bus1=p1rdt5010lv.1.2 bus2=p1rlv9350.1.2 switch=n enabled=y phases=2 Linecode=1P_OH_AL_4/0_Zuzara_0_416_0_2_2_2_2_2_2_2_2_2_2_2_2_2_2_2_2_2_2_2_2_2_2_2_2_2_2_2_2_2

New Line.l(r:p1rdm9528-p1rlv6570) Units=km Length=0.0306566 bus1=p1rdm9528.1.2 bus2=p1rlv6570.1.2 switch=n enabled=y phases=2 Linecode=1P_OH_AL_4/0_Zuzara_0_416_0_2_2_2_2_2_2_2_2_2_2_2_2_2_2_2_2_2_2_2_2_2_2_2_2_2_2_2_2_2

New Line.l(r:p1rdm9528-p1rdt5010lv) Units=km Length=0.0188141 bus1=p1rdt5010lv.1.2 bus2=p1rdm9528.1.2 switch=n enabled=y phases=2 Linecode=1P_OH_AL_2/0_Rucina_0_416_0_2_2_2_2_2_2_2_2_2_2_2_2_2_2_2_2_2_2_2_2_2_2_2_2_2_2_2_2_2

New Line.l(r:p1rdm9530-p1rlv12397) Units=km Length=0.0368347 bus1=p1rdm9530.1.2 bus2=p1rlv12397.1.2 switch=n enabled=y phases=2 Linecode=1P_OH_AL_4/0_Zuzara_0_416_0_2_2_2_2_2_2_2_2_2_2_2_2_2_2_2_2_2_2_2_2_2_2_2_2_2_2_2_2_2

New Line.l(r:p1rdm9530-p1rdt5010lv) Units=km Length=0.0188027 bus1=p1rdt5010lv.1.2 bus2=p1rdm9530.1.2 switch=n enabled=y phases=2 Linecode=1P_OH_AL_2/0_Rucina_0_416_0_2_2_2_2_2_2_2_2_2_2_2_2_2_2_2_2_2_2_2_2_2_2_2_2_2_2_2_2_2

New Line.l(r:p1rdt5189lv-p1rlv6839) Units=km Length=0.027322 bus1=p1rdt5189lv.1.2 bus2=p1rlv6839.1.2 switch=n enabled=y phases=2 Linecode=1P_OH_AL_4/0_Zuzara_0_416_0_2_2_2_2_2_2_2_2_2_2_2_2_2_2_2_2_2_2_2_2_2_2_2_2_2_2_2_2_2

New Line.l(r:p1rdt5190lv-p1rlv6840) Units=km Length=0.001 bus1=p1rdt5190lv.1.2 bus2=p1rlv6840.1.2 switch=n enabled=y phases=2 Linecode=1P_OH_AL_4_Periwinkle_0_416_0_2_2_2_2_2_2_2_2_2_2_2_2_2_2_2_2_2_2_2_2_2_2_2_2_2_2_2_2_2

New Line.l(r:p1rdt5260lv-p1rlv6954) Units=km Length=0.06190590000000001 bus1=p1rdt5260lv.1.2 bus2=p1rlv6954.1.2 switch=n enabled=y phases=2 Linecode=1P_OH_AL_4/0_Zuzara_0_416_0_2_2_2_2_2_2_2_2_2_2_2_2_2_2_2_2_2_2_2_2_2_2_2_2_2_2_2_2_2

New Line.l(r:p1rdt5260lv-p1rlv13679) Units=km Length=0.06190590000000001 bus1=p1rdt5260lv.1.2 bus2=p1rlv13679.1.2 switch=n enabled=y phases=2 Linecode=1P_OH_AL_4/0_Zuzara_0_416_0_2_2_2_2_2_2_2_2_2_2_2_2_2_2_2_2_2_2_2_2_2_2_2_2_2_2_2_2_2

New Line.l(r:p1rdt5261lv-p1rlv6955) Units=km Length=0.001 bus1=p1rdt5261lv.1.2 bus2=p1rlv6955.1.2 switch=n enabled=y phases=2 Linecode=1P_OH_AL_4_Periwinkle_0_416_0_2_2_2_2_2_2_2_2_2_2_2_2_2_2_2_2_2_2_2_2_2_2_2_2_2_2_2_2_2

New Line.l(r:p1rdt5344lv-p1rlv7099) Units=km Length=0.0434247 bus1=p1rdt5344lv.1.2 bus2=p1rlv7099.1.2 switch=n enabled=y phases=2 Linecode=1P_OH_AL_4/0_Zuzara_0_416_0_2_2_2_2_2_2_2_2_2_2_2_2_2_2_2_2_2_2_2_2_2_2_2_2_2_2_2_2_2

New Line.l(r:p1rdt5344lv-p1rlv9930) Units=km Length=0.0391668 bus1=p1rdt5344lv.1.2 bus2=p1rlv9930.1.2 switch=n enabled=y phases=2 Linecode=1P_OH_AL_4/0_Zuzara_0_416_0_2_2_2_2_2_2_2_2_2_2_2_2_2_2_2_2_2_2_2_2_2_2_2_2_2_2_2_2_2

New Line.l(r:p1rdt5344lv-p1rlv10061) Units=km Length=0.0423678 bus1=p1rdt5344lv.1.2 bus2=p1rlv10061.1.2 switch=n enabled=y phases=2 Linecode=1P_OH_AL_4/0_Zuzara_0_416_0_2_2_2_2_2_2_2_2_2_2_2_2_2_2_2_2_2_2_2_2_2_2_2_2_2_2_2_2_2

New Line.l(r:p1rdt5421lv-p1rlv7241) Units=km Length=0.0416574 bus1=p1rdt5421lv.1.2 bus2=p1rlv7241.1.2 switch=n enabled=y phases=2 Linecode=1P_OH_AL_4/0_Zuzara_0_416_0_2_2_2_2_2_2_2_2_2_2_2_2_2_2_2_2_2_2_2_2_2_2_2_2_2_2_2_2_2

New Line.l(r:p1rdt5655lv-p1rlv7663) Units=km Length=0.0423958 bus1=p1rdt5655lv.1.2 bus2=p1rlv7663.1.2 switch=n enabled=y phases=2 Linecode=1P_OH_AL_4/0_Zuzara_0_416_0_2_2_2_2_2_2_2_2_2_2_2_2_2_2_2_2_2_2_2_2_2_2_2_2_2_2_2_2_2
