New Load.load_p1rlv33 conn=wye bus1=p1rlv33.1.2 kV=0.2080002494301389 Vminpu=0.8 Vmaxpu=1.2 model=1 kW=3.63004 kvar=0.7409012375272501 Phases=2

New Load.load_p1rlv159 conn=wye bus1=p1rlv159.1.2 kV=0.2080002494301389 Vminpu=0.8 Vmaxpu=1.2 model=1 kW=0.9900100000000001 kvar=0.32010019291080516 Phases=2

New Load.load_p1rlv299 conn=wye bus1=p1rlv299.1.2 kV=0.2080002494301389 Vminpu=0.8 Vmaxpu=1.2 model=1 kW=2.15002 kvar=0.43994369930755917 Phases=2

New Load.load_p1rlv300 conn=wye bus1=p1rlv300.1.2 kV=0.2080002494301389 Vminpu=0.8 Vmaxpu=1.2 model=1 kW=5.21005 kvar=1.0606687900945995 Phases=2

New Load.load_p1rlv427 conn=wye bus1=p1rlv427.1.2 kV=0.2080002494301389 Vminpu=0.8 Vmaxpu=1.2 model=1 kW=9.5401 kvar=1.942186029765835 Phases=2

New Load.load_p1rlv436 conn=wye bus1=p1rlv436.1.2 kV=0.2080002494301389 Vminpu=0.8 Vmaxpu=1.2 model=1 kW=1.75002 kvar=0.5702204175888775 Phases=2

New Load.load_p1rlv553 conn=wye bus1=p1rlv553.1.2 kV=0.2080002494301389 Vminpu=0.8 Vmaxpu=1.2 model=1 kW=7.02007 kvar=1.4291550279324372 Phases=2

New Load.load_p1rlv694 conn=wye bus1=p1rlv694.1.2 kV=0.2080002494301389 Vminpu=0.8 Vmaxpu=1.2 model=1 kW=1.75002 kvar=0.5702204175888775 Phases=2

New Load.load_p1rlv852 conn=wye bus1=p1rlv852.1.2 kV=0.2080002494301389 Vminpu=0.8 Vmaxpu=1.2 model=1 kW=5.10005 kvar=1.0409343578723245 Phases=2

New Load.load_p1rlv985 conn=wye bus1=p1rlv985.1.2 kV=0.2080002494301389 Vminpu=0.8 Vmaxpu=1.2 model=1 kW=3.14003 kvar=1.0298477362987708 Phases=2

New Load.load_p1rlv1003 conn=wye bus1=p1rlv1003.1.2 kV=0.2080002494301389 Vminpu=0.8 Vmaxpu=1.2 model=1 kW=1.46001 kvar=0.47988208040219194 Phases=2

New Load.load_p1rlv1107 conn=wye bus1=p1rlv1107.1.2 kV=0.2080002494301389 Vminpu=0.8 Vmaxpu=1.2 model=1 kW=16.9002 kvar=3.4317319764467995 Phases=2

New Load.load_p1rlv1108 conn=wye bus1=p1rlv1108.1.2.3 kV=0.48 Vminpu=0.8 Vmaxpu=1.2 model=1 kW=32.960300000000004 kvar=6.692874372094972 Phases=3

New Load.load_p1rlv1109 conn=wye bus1=p1rlv1109.1.2 kV=0.2080002494301389 Vminpu=0.8 Vmaxpu=1.2 model=1 kW=6.20006 kvar=1.2589758794504644 Phases=2

New Load.load_p1rlv1374 conn=wye bus1=p1rlv1374.1.2 kV=0.2080002494301389 Vminpu=0.8 Vmaxpu=1.2 model=1 kW=7.99008 kvar=1.6182694613892477 Phases=2

New Load.load_p1rlv1375 conn=wye bus1=p1rlv1375.1.2 kV=0.2080002494301389 Vminpu=0.8 Vmaxpu=1.2 model=1 kW=5.75006 kvar=1.1706047318492825 Phases=2

New Load.load_p1rlv1376 conn=wye bus1=p1rlv1376.1.2 kV=0.2080002494301389 Vminpu=0.8 Vmaxpu=1.2 model=1 kW=4.450040000000001 kvar=0.898951662187625 Phases=2

New Load.load_p1rlv1517 conn=wye bus1=p1rlv1517.1.2 kV=0.2080002494301389 Vminpu=0.8 Vmaxpu=1.2 model=1 kW=0.9300090000000001 kvar=0.30994841936642104 Phases=2

New Load.load_p1rlv1518 conn=wye bus1=p1rlv1518.1.2 kV=0.2080002494301389 Vminpu=0.8 Vmaxpu=1.2 model=1 kW=1.19001 kvar=0.3898690738580709 Phases=2

New Load.load_p1rlv1519 conn=wye bus1=p1rlv1519.1.2 kV=0.2080002494301389 Vminpu=0.8 Vmaxpu=1.2 model=1 kW=2.54003 kvar=0.5197487439894416 Phases=2

New Load.load_p1rlv1520 conn=wye bus1=p1rlv1520.1.2 kV=0.2080002494301389 Vminpu=0.8 Vmaxpu=1.2 model=1 kW=5.73006 kvar=1.1605367042542845 Phases=2

New Load.load_p1rlv1638 conn=wye bus1=p1rlv1638.1.2.3 kV=0.48 Vminpu=0.8 Vmaxpu=1.2 model=1 kW=42.24040000000001 kvar=8.577279048644597 Phases=3

New Load.load_p1rlv1651 conn=wye bus1=p1rlv1651.1.2 kV=0.2080002494301389 Vminpu=0.8 Vmaxpu=1.2 model=1 kW=2.1000200000000007 kvar=0.6902431945577164 Phases=2

New Load.load_p1rlv1770 conn=wye bus1=p1rlv1770.1.2 kV=0.2080002494301389 Vminpu=0.8 Vmaxpu=1.2 model=1 kW=0.9200090000000001 kvar=0.30010089011814445 Phases=2

New Load.load_p1rlv1902 conn=wye bus1=p1rlv1902.1.2 kV=0.2080002494301389 Vminpu=0.8 Vmaxpu=1.2 model=1 kW=2.70003 kvar=0.8903280168911769 Phases=2

New Load.load_p1rlv1903 conn=wye bus1=p1rlv1903.1.2 kV=0.2080002494301389 Vminpu=0.8 Vmaxpu=1.2 model=1 kW=2.00002 kvar=0.6602093323043688 Phases=2

New Load.load_p1rlv1908 conn=wye bus1=p1rlv1908.1.2 kV=0.2080002494301389 Vminpu=0.8 Vmaxpu=1.2 model=1 kW=3.36003 kvar=1.0996118458548003 Phases=2

New Load.load_p1rlv1909 conn=wye bus1=p1rlv1909.1.2 kV=0.2080002494301389 Vminpu=0.8 Vmaxpu=1.2 model=1 kW=2.01002 kvar=0.41025065989755577 Phases=2

New Load.load_p1rlv2327 conn=wye bus1=p1rlv2327.1.2 kV=0.2080002494301389 Vminpu=0.8 Vmaxpu=1.2 model=1 kW=5.06005 kvar=1.030131593999708 Phases=2

New Load.load_p1rlv2724 conn=wye bus1=p1rlv2724.1.2 kV=0.2080002494301389 Vminpu=0.8 Vmaxpu=1.2 model=1 kW=0.440004 kvar=0.1500168704752404 Phases=2

New Load.load_p1rlv2725 conn=wye bus1=p1rlv2725.1.2 kV=0.2080002494301389 Vminpu=0.8 Vmaxpu=1.2 model=1 kW=6.700070000000001 kvar=1.3605072403540732 Phases=2

New Load.load_p1rlv2983 conn=wye bus1=p1rlv2983.1.2 kV=0.2080002494301389 Vminpu=0.8 Vmaxpu=1.2 model=1 kW=1.68002 kvar=0.5498075592399418 Phases=2

New Load.load_p1rlv3110 conn=wye bus1=p1rlv3110.1.2 kV=0.2080002494301389 Vminpu=0.8 Vmaxpu=1.2 model=1 kW=0.480005 kvar=0.09995294943812434 Phases=2

New Load.load_p1rlv3234 conn=wye bus1=p1rlv3234.1.2 kV=0.2080002494301389 Vminpu=0.8 Vmaxpu=1.2 model=1 kW=4.04004 kvar=1.3293300123008445 Phases=2

New Load.load_p1rlv3235 conn=wye bus1=p1rlv3235.1.2 kV=0.2080002494301389 Vminpu=0.8 Vmaxpu=1.2 model=1 kW=5.62006 kvar=1.141201856282742 Phases=2

New Load.load_p1rlv3246 conn=wye bus1=p1rlv3246.1.2 kV=0.2080002494301389 Vminpu=0.8 Vmaxpu=1.2 model=1 kW=10.930100000000001 kvar=2.2194514665957303 Phases=2

New Load.load_p1rlv3516 conn=wye bus1=p1rlv3516.1.2 kV=0.2080002494301389 Vminpu=0.8 Vmaxpu=1.2 model=1 kW=5.44005 kvar=1.0989433780109366 Phases=2

New Load.load_p1rlv3668 conn=wye bus1=p1rlv3668.1.2 kV=0.2080002494301389 Vminpu=0.8 Vmaxpu=1.2 model=1 kW=6.21006 kvar=1.2610064660568046 Phases=2

New Load.load_p1rlv3911 conn=wye bus1=p1rlv3911.1.2 kV=0.2080002494301389 Vminpu=0.8 Vmaxpu=1.2 model=1 kW=1.60002 kvar=0.529865022157608 Phases=2

New Load.load_p1rlv3912 conn=wye bus1=p1rlv3912.1.2 kV=0.2080002494301389 Vminpu=0.8 Vmaxpu=1.2 model=1 kW=6.63007 kvar=1.349758318085719 Phases=2

New Load.load_p1rlv4041 conn=wye bus1=p1rlv4041.1.2 kV=0.2080002494301389 Vminpu=0.8 Vmaxpu=1.2 model=1 kW=3.06003 kvar=1.0101200803648651 Phases=2

New Load.load_p1rlv4042 conn=wye bus1=p1rlv4042.1.2 kV=0.2080002494301389 Vminpu=0.8 Vmaxpu=1.2 model=1 kW=9.35009 kvar=1.8986167522073973 Phases=2

New Load.load_p1rlv4043 conn=wye bus1=p1rlv4043.1.2 kV=0.2080002494301389 Vminpu=0.8 Vmaxpu=1.2 model=1 kW=0.9900100000000001 kvar=0.32010019291080516 Phases=2

New Load.load_p1rlv4317 conn=wye bus1=p1rlv4317.1.2 kV=0.2080002494301389 Vminpu=0.8 Vmaxpu=1.2 model=1 kW=7.47007 kvar=1.520766616217112 Phases=2

New Load.load_p1rlv4318 conn=wye bus1=p1rlv4318.1.2 kV=0.2080002494301389 Vminpu=0.8 Vmaxpu=1.2 model=1 kW=5.75006 kvar=1.1706047318492825 Phases=2

New Load.load_p1rlv4477 conn=wye bus1=p1rlv4477.1.2 kV=0.2080002494301389 Vminpu=0.8 Vmaxpu=1.2 model=1 kW=5.47005 kvar=1.110741026601035 Phases=2

New Load.load_p1rlv4750 conn=wye bus1=p1rlv4750.1.2 kV=0.2080002494301389 Vminpu=0.8 Vmaxpu=1.2 model=1 kW=9.35009 kvar=1.8986167522073973 Phases=2

New Load.load_p1rlv4907 conn=wye bus1=p1rlv4907.1.2 kV=0.2080002494301389 Vminpu=0.8 Vmaxpu=1.2 model=1 kW=5.29005 kvar=1.0686419089616372 Phases=2

New Load.load_p1rlv5027 conn=wye bus1=p1rlv5027.1.2 kV=0.2080002494301389 Vminpu=0.8 Vmaxpu=1.2 model=1 kW=6.28006 kvar=1.2785028247178991 Phases=2

New Load.load_p1rlv5150 conn=wye bus1=p1rlv5150.1.2 kV=0.2080002494301389 Vminpu=0.8 Vmaxpu=1.2 model=1 kW=4.630050000000001 kvar=0.9401717516684716 Phases=2

New Load.load_p1rlv5273 conn=wye bus1=p1rlv5273.1.2 kV=0.2080002494301389 Vminpu=0.8 Vmaxpu=1.2 model=1 kW=5.380050000000001 kvar=1.0896474898558242 Phases=2

New Load.load_p1rlv5416 conn=wye bus1=p1rlv5416.1.2 kV=0.2080002494301389 Vminpu=0.8 Vmaxpu=1.2 model=1 kW=6.09006 kvar=1.2398223763310365 Phases=2

New Load.load_p1rlv5417 conn=wye bus1=p1rlv5417.1.2 kV=0.2080002494301389 Vminpu=0.8 Vmaxpu=1.2 model=1 kW=1.57002 kvar=0.5199301771777152 Phases=2

New Load.load_p1rlv5428 conn=wye bus1=p1rlv5428.1.2 kV=0.2080002494301389 Vminpu=0.8 Vmaxpu=1.2 model=1 kW=6.75007 kvar=1.3706601733857733 Phases=2

New Load.load_p1rlv5542 conn=wye bus1=p1rlv5542.1.2 kV=0.2080002494301389 Vminpu=0.8 Vmaxpu=1.2 model=1 kW=1.3100100000000001 kvar=0.43011442376461256 Phases=2

New Load.load_p1rlv5694 conn=wye bus1=p1rlv5694.1.2 kV=0.2080002494301389 Vminpu=0.8 Vmaxpu=1.2 model=1 kW=6.23006 kvar=1.2585331351018492 Phases=2

New Load.load_p1rlv5813 conn=wye bus1=p1rlv5813.1.2 kV=0.2080002494301389 Vminpu=0.8 Vmaxpu=1.2 model=1 kW=1.63002 kvar=0.3301358168446 Phases=2

New Load.load_p1rlv6082 conn=wye bus1=p1rlv6082.1.2 kV=0.2080002494301389 Vminpu=0.8 Vmaxpu=1.2 model=1 kW=8.50009 kvar=1.7304594343615136 Phases=2

New Load.load_p1rlv6201 conn=wye bus1=p1rlv6201.1.2 kV=0.2080002494301389 Vminpu=0.8 Vmaxpu=1.2 model=1 kW=17.7502 kvar=3.6136089208236313 Phases=2

New Load.load_p1rlv6333 conn=wye bus1=p1rlv6333.1.2.3 kV=0.48 Vminpu=0.8 Vmaxpu=1.2 model=1 kW=34.0703 kvar=11.19836606867542 Phases=3

New Load.load_p1rlv6334 conn=wye bus1=p1rlv6334.1.2 kV=0.2080002494301389 Vminpu=0.8 Vmaxpu=1.2 model=1 kW=6.71007 kvar=1.3590228589431081 Phases=2

New Load.load_p1rlv6335 conn=wye bus1=p1rlv6335.1.2 kV=0.2080002494301389 Vminpu=0.8 Vmaxpu=1.2 model=1 kW=12.260100000000001 kvar=4.02969999790338 Phases=2

New Load.load_p1rlv6451 conn=wye bus1=p1rlv6451.1.2 kV=0.2080002494301389 Vminpu=0.8 Vmaxpu=1.2 model=1 kW=5.58006 kvar=1.1301564803756265 Phases=2

New Load.load_p1rmv2 conn=wye bus1=p1rmv2.1.2.3 kV=12.47 Vminpu=0.8 Vmaxpu=1.2 model=1 kW=1390.93 kvar=282.44038283565567 Phases=3

New Load.load_p1rlv6569 conn=wye bus1=p1rlv6569.1.2 kV=0.2080002494301389 Vminpu=0.8 Vmaxpu=1.2 model=1 kW=1.95002 kvar=0.6402483405695146 Phases=2

New Load.load_p1rlv6570 conn=wye bus1=p1rlv6570.1.2 kV=0.2080002494301389 Vminpu=0.8 Vmaxpu=1.2 model=1 kW=7.29007 kvar=1.4803118501281356 Phases=2

New Load.load_p1rlv6584 conn=wye bus1=p1rlv6584.1.2 kV=0.2080002494301389 Vminpu=0.8 Vmaxpu=1.2 model=1 kW=1.60002 kvar=0.529865022157608 Phases=2

New Load.load_p1rlv6839 conn=wye bus1=p1rlv6839.1.2 kV=0.2080002494301389 Vminpu=0.8 Vmaxpu=1.2 model=1 kW=6.92007 kvar=1.4087968972025093 Phases=2

New Load.load_p1rlv6840 conn=wye bus1=p1rlv6840.1.2 kV=0.2080002494301389 Vminpu=0.8 Vmaxpu=1.2 model=1 kW=5.44005 kvar=1.1103293013878959 Phases=2

New Load.load_p1rlv6954 conn=wye bus1=p1rlv6954.1.2 kV=0.2080002494301389 Vminpu=0.8 Vmaxpu=1.2 model=1 kW=15.320200000000002 kvar=3.110899292645073 Phases=2

New Load.load_p1rlv6955 conn=wye bus1=p1rlv6955.1.2 kV=0.2080002494301389 Vminpu=0.8 Vmaxpu=1.2 model=1 kW=5.92006 kvar=1.1990183211672512 Phases=2

New Load.load_p1rlv7099 conn=wye bus1=p1rlv7099.1.2 kV=0.2080002494301389 Vminpu=0.8 Vmaxpu=1.2 model=1 kW=5.21005 kvar=1.7106111049036419 Phases=2

New Load.load_p1rlv7111 conn=wye bus1=p1rlv7111.1.2 kV=0.2080002494301389 Vminpu=0.8 Vmaxpu=1.2 model=1 kW=5.12005 kvar=1.6792425238728683 Phases=2

New Load.load_p1rlv7241 conn=wye bus1=p1rlv7241.1.2 kV=0.2080002494301389 Vminpu=0.8 Vmaxpu=1.2 model=1 kW=8.21008 kvar=1.6714188194316502 Phases=2

New Load.load_p1rlv7242 conn=wye bus1=p1rlv7242.1.2 kV=0.2080002494301389 Vminpu=0.8 Vmaxpu=1.2 model=1 kW=1.25001 kvar=0.40997059545635767 Phases=2

New Load.load_p1rlv7521 conn=wye bus1=p1rlv7521.1.2 kV=0.2080002494301389 Vminpu=0.8 Vmaxpu=1.2 model=1 kW=1.34001 kvar=0.43996429721056973 Phases=2

New Load.load_p1rlv7662 conn=wye bus1=p1rlv7662.1.2.3 kV=0.48 Vminpu=0.8 Vmaxpu=1.2 model=1 kW=39.07039999999999 kvar=12.841819462980252 Phases=3

New Load.load_p1rlv7663 conn=wye bus1=p1rlv7663.1.2 kV=0.2080002494301389 Vminpu=0.8 Vmaxpu=1.2 model=1 kW=6.020060000000001 kvar=1.219271803753023 Phases=2

New Load.load_p1rlv7664 conn=wye bus1=p1rlv7664.1.2 kV=0.2080002494301389 Vminpu=0.8 Vmaxpu=1.2 model=1 kW=5.22005 kvar=1.719449357746254 Phases=2

New Load.load_p1rlv7668 conn=wye bus1=p1rlv7668.1.2 kV=0.2080002494301389 Vminpu=0.8 Vmaxpu=1.2 model=1 kW=1.54002 kvar=0.31028870378615914 Phases=2

New Load.load_p1rlv7797 conn=wye bus1=p1rlv7797.1.2 kV=0.2080002494301389 Vminpu=0.8 Vmaxpu=1.2 model=1 kW=8.36008 kvar=2.7507908954456 Phases=2

New Load.load_p1rlv7924 conn=wye bus1=p1rlv7924.1.2.3 kV=0.48 Vminpu=0.8 Vmaxpu=1.2 model=1 kW=26.3903 kvar=5.3587789717295635 Phases=3

New Load.load_p1rlv8172 conn=wye bus1=p1rlv8172.1.2 kV=0.2080002494301389 Vminpu=0.8 Vmaxpu=1.2 model=1 kW=3.44003 kvar=1.1294620050098705 Phases=2

New Load.load_p1rlv8300 conn=wye bus1=p1rlv8300.1.2 kV=0.2080002494301389 Vminpu=0.8 Vmaxpu=1.2 model=1 kW=3.11003 kvar=0.6298893844622836 Phases=2

New Load.load_p1rlv8432 conn=wye bus1=p1rlv8432.1.2 kV=0.2080002494301389 Vminpu=0.8 Vmaxpu=1.2 model=1 kW=7.95008 kvar=2.6102427295078448 Phases=2

New Load.load_p1rlv8435 conn=wye bus1=p1rlv8435.1.2 kV=0.2080002494301389 Vminpu=0.8 Vmaxpu=1.2 model=1 kW=1.17001 kvar=0.3799772418482078 Phases=2

New Load.load_p1rlv8436 conn=wye bus1=p1rlv8436.1.2 kV=0.2080002494301389 Vminpu=0.8 Vmaxpu=1.2 model=1 kW=5.36005 kvar=1.7598604721334279 Phases=2

New Load.load_p1rlv8443 conn=wye bus1=p1rlv8443.1.2 kV=0.2080002494301389 Vminpu=0.8 Vmaxpu=1.2 model=1 kW=5.02005 kvar=1.0193646293157332 Phases=2

New Load.load_p1rlv8567 conn=wye bus1=p1rlv8567.1.2.3 kV=0.48 Vminpu=0.8 Vmaxpu=1.2 model=1 kW=19.6502 kvar=3.990143293190311 Phases=3

New Load.load_p1rlv8568 conn=wye bus1=p1rlv8568.1.2 kV=0.2080002494301389 Vminpu=0.8 Vmaxpu=1.2 model=1 kW=8.65009 kvar=2.8400763932046607 Phases=2

New Load.load_p1rlv8711 conn=wye bus1=p1rlv8711.1.2 kV=0.2080002494301389 Vminpu=0.8 Vmaxpu=1.2 model=1 kW=1.92002 kvar=0.6297163564196413 Phases=2

New Load.load_p1rlv8837 conn=wye bus1=p1rlv8837.1.2 kV=0.2080002494301389 Vminpu=0.8 Vmaxpu=1.2 model=1 kW=1.01001 kvar=0.3301787578020665 Phases=2

New Load.load_p1rlv8838 conn=wye bus1=p1rlv8838.1.2 kV=0.2080002494301389 Vminpu=0.8 Vmaxpu=1.2 model=1 kW=0.870009 kvar=0.28995194066354263 Phases=2

New Load.load_p1rlv8975 conn=wye bus1=p1rlv8975.1.2 kV=0.2080002494301389 Vminpu=0.8 Vmaxpu=1.2 model=1 kW=6.16006 kvar=2.029082328843285 Phases=2

New Load.load_p1rlv8976 conn=wye bus1=p1rlv8976.1.2 kV=0.2080002494301389 Vminpu=0.8 Vmaxpu=1.2 model=1 kW=6.26006 kvar=1.2711593990885048 Phases=2

New Load.load_p1rlv8977 conn=wye bus1=p1rlv8977.1.2 kV=0.2080002494301389 Vminpu=0.8 Vmaxpu=1.2 model=1 kW=3.37003 kvar=0.6807790649347335 Phases=2

New Load.load_p1rlv8985 conn=wye bus1=p1rlv8985.1.2 kV=0.2080002494301389 Vminpu=0.8 Vmaxpu=1.2 model=1 kW=1.16001 kvar=0.38004052433685503 Phases=2

New Load.load_p1rlv9098 conn=wye bus1=p1rlv9098.1.2 kV=0.2080002494301389 Vminpu=0.8 Vmaxpu=1.2 model=1 kW=10.930100000000001 kvar=2.2194514665957303 Phases=2

New Load.load_p1rlv9099 conn=wye bus1=p1rlv9099.1.2 kV=0.2080002494301389 Vminpu=0.8 Vmaxpu=1.2 model=1 kW=2.3500200000000007 kvar=0.7699095981949263 Phases=2

New Load.load_p1rlv9235 conn=wye bus1=p1rlv9235.1.2 kV=0.2080002494301389 Vminpu=0.8 Vmaxpu=1.2 model=1 kW=15.9402 kvar=3.2367956622381553 Phases=2

New Load.load_p1rlv9236 conn=wye bus1=p1rlv9236.1.2 kV=0.2080002494301389 Vminpu=0.8 Vmaxpu=1.2 model=1 kW=1.18001 kvar=0.38994021562338865 Phases=2

New Load.load_p1rlv9350 conn=wye bus1=p1rlv9350.1.2 kV=0.2080002494301389 Vminpu=0.8 Vmaxpu=1.2 model=1 kW=7.33007 kvar=1.488434196553496 Phases=2

New Load.load_p1rlv9494 conn=wye bus1=p1rlv9494.1.2 kV=0.2080002494301389 Vminpu=0.8 Vmaxpu=1.2 model=1 kW=5.26005 kvar=1.070847855459563 Phases=2

New Load.load_p1rlv9508 conn=wye bus1=p1rlv9508.1.2 kV=0.2080002494301389 Vminpu=0.8 Vmaxpu=1.2 model=1 kW=0.6600070000000001 kvar=0.21996359865417808 Phases=2

New Load.load_p1rlv9775 conn=wye bus1=p1rlv9775.1.2 kV=0.2080002494301389 Vminpu=0.8 Vmaxpu=1.2 model=1 kW=0.43000400000000005 kvar=0.13995741049759522 Phases=2

New Load.load_p1rlv9776 conn=wye bus1=p1rlv9776.1.2 kV=0.2080002494301389 Vminpu=0.8 Vmaxpu=1.2 model=1 kW=7.30007 kvar=1.4785184061991627 Phases=2

New Load.load_p1rlv9777 conn=wye bus1=p1rlv9777.1.2 kV=0.2080002494301389 Vminpu=0.8 Vmaxpu=1.2 model=1 kW=5.06005 kvar=1.030131593999708 Phases=2

New Load.load_p1rlv9928 conn=wye bus1=p1rlv9928.1.2 kV=0.2080002494301389 Vminpu=0.8 Vmaxpu=1.2 model=1 kW=5.57006 kvar=1.131048923251042 Phases=2

New Load.load_p1rlv9929 conn=wye bus1=p1rlv9929.1.2 kV=0.2080002494301389 Vminpu=0.8 Vmaxpu=1.2 model=1 kW=6.79007 kvar=1.3787825198111334 Phases=2

New Load.load_p1rlv9930 conn=wye bus1=p1rlv9930.1.2 kV=0.2080002494301389 Vminpu=0.8 Vmaxpu=1.2 model=1 kW=2.27002 kvar=0.750139480402204 Phases=2

New Load.load_p1rlv10056 conn=wye bus1=p1rlv10056.1.2.3 kV=0.48 Vminpu=0.8 Vmaxpu=1.2 model=1 kW=54.5505 kvar=11.07695146691525 Phases=3

New Load.load_p1rlv10058 conn=wye bus1=p1rlv10058.1.2 kV=0.2080002494301389 Vminpu=0.8 Vmaxpu=1.2 model=1 kW=4.01004 kvar=1.3194588475675681 Phases=2

New Load.load_p1rlv10059 conn=wye bus1=p1rlv10059.1.2 kV=0.2080002494301389 Vminpu=0.8 Vmaxpu=1.2 model=1 kW=5.37005 kvar=1.0904351605376348 Phases=2

New Load.load_p1rlv10060 conn=wye bus1=p1rlv10060.1.2 kV=0.2080002494301389 Vminpu=0.8 Vmaxpu=1.2 model=1 kW=5.340050000000001 kvar=1.078742398644737 Phases=2

New Load.load_p1rlv10061 conn=wye bus1=p1rlv10061.1.2 kV=0.2080002494301389 Vminpu=0.8 Vmaxpu=1.2 model=1 kW=3.20003 kvar=1.049526167453227 Phases=2

New Load.load_p1rlv10178 conn=wye bus1=p1rlv10178.1.2 kV=0.2080002494301389 Vminpu=0.8 Vmaxpu=1.2 model=1 kW=8.22008 kvar=1.6691584351043662 Phases=2

New Load.load_p1rlv10179 conn=wye bus1=p1rlv10179.1.2 kV=0.2080002494301389 Vminpu=0.8 Vmaxpu=1.2 model=1 kW=0.740007 kvar=0.2400627578298188 Phases=2

New Load.load_p1rlv10313 conn=wye bus1=p1rlv10313.1.2 kV=0.2080002494301389 Vminpu=0.8 Vmaxpu=1.2 model=1 kW=0.410004 kvar=0.1300470018858701 Phases=2

New Load.load_p1rlv10444 conn=wye bus1=p1rlv10444.1.2.3 kV=0.48 Vminpu=0.8 Vmaxpu=1.2 model=1 kW=31.010300000000004 kvar=6.296909983858664 Phases=3

New Load.load_p1rlv10584 conn=wye bus1=p1rlv10584.1.2 kV=0.2080002494301389 Vminpu=0.8 Vmaxpu=1.2 model=1 kW=4.34004 kvar=1.4203323766405858 Phases=2

New Load.load_p1rlv10588 conn=wye bus1=p1rlv10588.1.2.3 kV=0.48 Vminpu=0.8 Vmaxpu=1.2 model=1 kW=25.560300000000005 kvar=8.401264333603295 Phases=3

New Load.load_p1rlv10730 conn=wye bus1=p1rlv10730.1.2 kV=0.2080002494301389 Vminpu=0.8 Vmaxpu=1.2 model=1 kW=3.23003 kvar=0.6592580864811803 Phases=2

New Load.load_p1rlv10733 conn=wye bus1=p1rlv10733.1.2 kV=0.2080002494301389 Vminpu=0.8 Vmaxpu=1.2 model=1 kW=1.00001 kvar=0.3301046661521844 Phases=2

New Load.load_p1rlv10856 conn=wye bus1=p1rlv10856.1.2 kV=0.2080002494301389 Vminpu=0.8 Vmaxpu=1.2 model=1 kW=4.44004 kvar=1.4593705743583594 Phases=2

New Load.load_p1rlv10857 conn=wye bus1=p1rlv10857.1.2 kV=0.2080002494301389 Vminpu=0.8 Vmaxpu=1.2 model=1 kW=3.02003 kvar=0.9904908739898591 Phases=2

New Load.load_p1rlv10858 conn=wye bus1=p1rlv10858.1.2 kV=0.2080002494301389 Vminpu=0.8 Vmaxpu=1.2 model=1 kW=7.87008 kvar=2.5895618714687547 Phases=2

New Load.load_p1rlv10859 conn=wye bus1=p1rlv10859.1.2 kV=0.2080002494301389 Vminpu=0.8 Vmaxpu=1.2 model=1 kW=5.05005 kvar=1.0307292191200343 Phases=2

New Load.load_p1rlv10860 conn=wye bus1=p1rlv10860.1.2 kV=0.2080002494301389 Vminpu=0.8 Vmaxpu=1.2 model=1 kW=5.79006 kvar=1.1787479841412536 Phases=2

New Load.load_p1rlv10995 conn=wye bus1=p1rlv10995.1.2 kV=0.2080002494301389 Vminpu=0.8 Vmaxpu=1.2 model=1 kW=7.55008 kvar=1.5291541380118512 Phases=2

New Load.load_p1rlv11151 conn=wye bus1=p1rlv11151.1.2 kV=0.2080002494301389 Vminpu=0.8 Vmaxpu=1.2 model=1 kW=7.40007 kvar=1.4987718887849348 Phases=2

New Load.load_p1rlv11152 conn=wye bus1=p1rlv11152.1.2 kV=0.2080002494301389 Vminpu=0.8 Vmaxpu=1.2 model=1 kW=2.08002 kvar=0.6799719010737066 Phases=2

New Load.load_p1rlv11162 conn=wye bus1=p1rlv11162.1.2 kV=0.2080002494301389 Vminpu=0.8 Vmaxpu=1.2 model=1 kW=0.400004 kvar=0.1300500405736297 Phases=2

New Load.load_p1rlv11268 conn=wye bus1=p1rlv11268.1.2 kV=0.2080002494301389 Vminpu=0.8 Vmaxpu=1.2 model=1 kW=12.1401 kvar=2.4587930393953012 Phases=2

New Load.load_p1rlv11269 conn=wye bus1=p1rlv11269.1.2 kV=0.2080002494301389 Vminpu=0.8 Vmaxpu=1.2 model=1 kW=7.11007 kvar=1.4400367892861963 Phases=2

New Load.load_p1rlv11414 conn=wye bus1=p1rlv11414.1.2 kV=0.2080002494301389 Vminpu=0.8 Vmaxpu=1.2 model=1 kW=5.600060000000001 kvar=1.1400675357543906 Phases=2

New Load.load_p1rlv11700 conn=wye bus1=p1rlv11700.1.2 kV=0.2080002494301389 Vminpu=0.8 Vmaxpu=1.2 model=1 kW=1.71002 kvar=0.5602338750756536 Phases=2

New Load.load_p1rlv11701 conn=wye bus1=p1rlv11701.1.2 kV=0.2080002494301389 Vminpu=0.8 Vmaxpu=1.2 model=1 kW=4.840050000000001 kvar=0.9802786838926555 Phases=2

New Load.load_p1rlv11837 conn=wye bus1=p1rlv11837.1.2 kV=0.2080002494301389 Vminpu=0.8 Vmaxpu=1.2 model=1 kW=3.14003 kvar=1.0298477362987708 Phases=2

New Load.load_p1rlv11838 conn=wye bus1=p1rlv11838.1.2 kV=0.2080002494301389 Vminpu=0.8 Vmaxpu=1.2 model=1 kW=6.50007 kvar=1.319895508227272 Phases=2

New Load.load_p1rlv11839 conn=wye bus1=p1rlv11839.1.2 kV=0.2080002494301389 Vminpu=0.8 Vmaxpu=1.2 model=1 kW=11.7001 kvar=3.84148347683479 Phases=2

New Load.load_p1rlv11973 conn=wye bus1=p1rlv11973.1.2 kV=0.2080002494301389 Vminpu=0.8 Vmaxpu=1.2 model=1 kW=5.93006 kvar=1.2010436694258284 Phases=2

New Load.load_p1rlv12106 conn=wye bus1=p1rlv12106.1.2 kV=0.2080002494301389 Vminpu=0.8 Vmaxpu=1.2 model=1 kW=12.2001 kvar=2.477335965600916 Phases=2

New Load.load_p1rlv12107 conn=wye bus1=p1rlv12107.1.2 kV=0.2080002494301389 Vminpu=0.8 Vmaxpu=1.2 model=1 kW=3.72004 kvar=1.2200758505303706 Phases=2

New Load.load_p1rlv12108 conn=wye bus1=p1rlv12108.1.2 kV=0.2080002494301389 Vminpu=0.8 Vmaxpu=1.2 model=1 kW=5.57006 kvar=1.131048923251042 Phases=2

New Load.load_p1rlv12245 conn=wye bus1=p1rlv12245.1.2 kV=0.2080002494301389 Vminpu=0.8 Vmaxpu=1.2 model=1 kW=0.570006 kvar=0.18996854732521534 Phases=2

New Load.load_p1rlv12394 conn=wye bus1=p1rlv12394.1.2 kV=0.2080002494301389 Vminpu=0.8 Vmaxpu=1.2 model=1 kW=10.6501 kvar=3.5005185885654106 Phases=2

New Load.load_p1rlv12395 conn=wye bus1=p1rlv12395.1.2 kV=0.2080002494301389 Vminpu=0.8 Vmaxpu=1.2 model=1 kW=0.910009 kvar=0.30007315041800386 Phases=2

New Load.load_p1rlv12396 conn=wye bus1=p1rlv12396.1.2 kV=0.2080002494301389 Vminpu=0.8 Vmaxpu=1.2 model=1 kW=6.140060000000001 kvar=1.2500014416960006 Phases=2

New Load.load_p1rlv12397 conn=wye bus1=p1rlv12397.1.2 kV=0.2080002494301389 Vminpu=0.8 Vmaxpu=1.2 model=1 kW=6.65007 kvar=1.3503543073223732 Phases=2

New Load.load_p1rlv12520 conn=wye bus1=p1rlv12520.1.2 kV=0.2080002494301389 Vminpu=0.8 Vmaxpu=1.2 model=1 kW=0.810008 kvar=0.2699551286860191 Phases=2

New Load.load_p1rlv12521 conn=wye bus1=p1rlv12521.1.2 kV=0.2080002494301389 Vminpu=0.8 Vmaxpu=1.2 model=1 kW=4.78005 kvar=0.9706305507635722 Phases=2

New Load.load_p1rlv12522 conn=wye bus1=p1rlv12522.1.2 kV=0.2080002494301389 Vminpu=0.8 Vmaxpu=1.2 model=1 kW=6.17006 kvar=1.249652027631681 Phases=2

New Load.load_p1rlv12639 conn=wye bus1=p1rlv12639.1.2 kV=0.2080002494301389 Vminpu=0.8 Vmaxpu=1.2 model=1 kW=3.55004 kvar=1.170616649846244 Phases=2

New Load.load_p1rlv12640 conn=wye bus1=p1rlv12640.1.2 kV=0.2080002494301389 Vminpu=0.8 Vmaxpu=1.2 model=1 kW=1.66002 kvar=0.5497347121173938 Phases=2

New Load.load_p1rlv12774 conn=wye bus1=p1rlv12774.1.2 kV=0.2080002494301389 Vminpu=0.8 Vmaxpu=1.2 model=1 kW=5.69006 kvar=1.1613570361770957 Phases=2

New Load.load_p1rlv12928 conn=wye bus1=p1rlv12928.1.2 kV=0.2080002494301389 Vminpu=0.8 Vmaxpu=1.2 model=1 kW=1.17001 kvar=0.3799772418482078 Phases=2

New Load.load_p1rlv13028 conn=wye bus1=p1rlv13028.1.2 kV=0.2080002494301389 Vminpu=0.8 Vmaxpu=1.2 model=1 kW=6.87007 kvar=1.3914284310803433 Phases=2

New Load.load_p1rlv13029 conn=wye bus1=p1rlv13029.1.2 kV=0.2080002494301389 Vminpu=0.8 Vmaxpu=1.2 model=1 kW=3.65004 kvar=1.1997101312670575 Phases=2

New Load.load_p1rlv13157 conn=wye bus1=p1rlv13157.1.2 kV=0.2080002494301389 Vminpu=0.8 Vmaxpu=1.2 model=1 kW=5.27005 kvar=1.7303108517955563 Phases=2

New Load.load_p1rlv13158 conn=wye bus1=p1rlv13158.1.2 kV=0.2080002494301389 Vminpu=0.8 Vmaxpu=1.2 model=1 kW=6.08006 kvar=1.2409571184449573 Phases=2

New Load.load_p1rlv13289 conn=wye bus1=p1rlv13289.1.2 kV=0.2080002494301389 Vminpu=0.8 Vmaxpu=1.2 model=1 kW=9.10009 kvar=1.8478520870488961 Phases=2

New Load.load_p1rlv13294 conn=wye bus1=p1rlv13294.1.2 kV=0.2080002494301389 Vminpu=0.8 Vmaxpu=1.2 model=1 kW=1.58002 kvar=0.32000907555171404 Phases=2

New Load.load_p1rlv13423 conn=wye bus1=p1rlv13423.1.2 kV=0.2080002494301389 Vminpu=0.8 Vmaxpu=1.2 model=1 kW=2.86003 kvar=0.9400464013347041 Phases=2

New Load.load_p1rlv13424 conn=wye bus1=p1rlv13424.1.2 kV=0.2080002494301389 Vminpu=0.8 Vmaxpu=1.2 model=1 kW=2.3500200000000007 kvar=0.7699095981949263 Phases=2

New Load.load_p1rlv13425 conn=wye bus1=p1rlv13425.1.2 kV=0.2080002494301389 Vminpu=0.8 Vmaxpu=1.2 model=1 kW=4.74005 kvar=0.9600252013068835 Phases=2

New Load.load_p1rlv13426 conn=wye bus1=p1rlv13426.1.2 kV=0.2080002494301389 Vminpu=0.8 Vmaxpu=1.2 model=1 kW=7.200070000000001 kvar=1.4582649236133909 Phases=2

New Load.load_p1rlv13679 conn=wye bus1=p1rlv13679.1.2 kV=0.2080002494301389 Vminpu=0.8 Vmaxpu=1.2 model=1 kW=5.27005 kvar=1.0701292944742342 Phases=2

New Load.load_p1rlv13680 conn=wye bus1=p1rlv13680.1.2 kV=0.2080002494301389 Vminpu=0.8 Vmaxpu=1.2 model=1 kW=6.990070000000001 kvar=1.4193942519379346 Phases=2

New Load.load_p1rlv13681 conn=wye bus1=p1rlv13681.1.2 kV=0.2080002494301389 Vminpu=0.8 Vmaxpu=1.2 model=1 kW=1.53002 kvar=0.5001733676026157 Phases=2

New Load.load_p1rlv13682 conn=wye bus1=p1rlv13682.1.2 kV=0.2080002494301389 Vminpu=0.8 Vmaxpu=1.2 model=1 kW=6.91007 kvar=1.399529824114652 Phases=2

New Load.load_p1rlv13805 conn=wye bus1=p1rlv13805.1.2 kV=0.2080002494301389 Vminpu=0.8 Vmaxpu=1.2 model=1 kW=2.21002 kvar=0.4499187607575488 Phases=2

