New Line.l(r:p3udt824lv-p3ulv981) Units=km Length=0.0423792 bus1=p3udt824lv.1.2 bus2=p3ulv981.1.2 switch=n enabled=y phases=2 Linecode=1P_OH_AL_4/0_Zuzara_0_416_0_2_2_2_2

New Line.l(r:p3udt824lv-p3ulv40824) Units=km Length=0.0239621 bus1=p3udt824lv.1.2 bus2=p3ulv40824.1.2 switch=n enabled=y phases=2 Linecode=1P_OH_AL_2/0_Rucina_0_416_0_2_2_2_2

New Line.l(r:p3udm2859-p3ulv9634) Units=km Length=0.0221157 bus1=p3udm2859.1.2 bus2=p3ulv9634.1.2 switch=n enabled=y phases=2 Linecode=1P_UG_AL_1/0_Brenau_0_416_0_2_2_2_2

New Line.l(r:p3udm2859-p3udt824lv) Units=km Length=0.0664871 bus1=p3udt824lv.1.2 bus2=p3udm2859.1.2 switch=n enabled=y phases=2 Linecode=1P_OH_AL_4/0_Zuzara_0_416_0_2_2_2_2

New Line.l(r:p3udm2861-p3ulv46337) Units=km Length=0.0635527 bus1=p3udm2861.1.2 bus2=p3ulv46337.1.2 switch=n enabled=y phases=2 Linecode=1P_OH_AL_4/0_Zuzara_0_416_0_2_2_2_2

New Line.l(r:p3udm2861-p3ulv79247) Units=km Length=0.05603910000000001 bus1=p3udm2861.1.2 bus2=p3ulv79247.1.2 switch=n enabled=y phases=2 Linecode=1P_OH_AL_4/0_Zuzara_0_416_0_2_2_2_2

New Line.l(r:p3udm2861-p3udt824lv) Units=km Length=0.0189765 bus1=p3udt824lv.1.2 bus2=p3udm2861.1.2 switch=n enabled=y phases=2 Linecode=1P_OH_AL_2/0_Rucina_0_416_0_2_2_2_2

New Line.l(r:p3udt825lv-p3ulv38443) Units=km Length=0.0855936 bus1=p3udt825lv.1.2 bus2=p3ulv38443.1.2 switch=n enabled=y phases=2 Linecode=1P_OH_AL_4/0_Zuzara_0_416_0_2_2_2_2

New Line.l(r:p3udm2863-p3ulv982) Units=km Length=0.07024220000000002 bus1=p3udm2863.1.2 bus2=p3ulv982.1.2 switch=n enabled=y phases=2 Linecode=1P_OH_AL_4/0_Zuzara_0_416_0_2_2_2_2

New Line.l(r:p3udm2863-p3ulv983) Units=km Length=0.0769608 bus1=p3udm2863.1.2 bus2=p3ulv983.1.2 switch=n enabled=y phases=2 Linecode=1P_OH_AL_4/0_Zuzara_0_416_0_2_2_2_2

New Line.l(r:p3udm2863-p3udt825lv) Units=km Length=0.0189853 bus1=p3udt825lv.1.2 bus2=p3udm2863.1.2 switch=n enabled=y phases=2 Linecode=1P_OH_AL_2/0_Rucina_0_416_0_2_2_2_2

New Line.l(r:p3udm2865-p3ulv19032) Units=km Length=0.0541956 bus1=p3udm2865.1.2 bus2=p3ulv19032.1.2 switch=n enabled=y phases=2 Linecode=1P_OH_AL_4/0_Zuzara_0_416_0_2_2_2_2

New Line.l(r:p3udm2865-p3udt825lv) Units=km Length=0.0189765 bus1=p3udt825lv.1.2 bus2=p3udm2865.1.2 switch=n enabled=y phases=2 Linecode=1P_OH_AL_2/0_Rucina_0_416_0_2_2_2_2

New Line.l(r:p3udt1581lv-p3ulv1766) Units=km Length=0.0440441 bus1=p3udt1581lv.1.2 bus2=p3ulv1766.1.2 switch=n enabled=y phases=2 Linecode=1P_OH_AL_4/0_Zuzara_0_416_0_2_2_2_2

New Line.l(r:p3udt1582lv-p3ulv1767) Units=km Length=0.0676888 bus1=p3udt1582lv.1.2 bus2=p3ulv1767.1.2 switch=n enabled=y phases=2 Linecode=1P_OH_AL_4/0_Zuzara_0_416_0_2_2_2_2

New Line.l(r:p3udt1582lv-p3ulv60019) Units=km Length=0.0676888 bus1=p3udt1582lv.1.2 bus2=p3ulv60019.1.2 switch=n enabled=y phases=2 Linecode=1P_OH_AL_4/0_Zuzara_0_416_0_2_2_2_2

New Line.l(r:p3udm5528-p3ulv1768) Units=km Length=0.026411 bus1=p3udm5528.1.2 bus2=p3ulv1768.1.2 switch=n enabled=y phases=2 Linecode=1P_OH_AL_2/0_Rucina_0_416_0_2_2_2_2

New Line.l(r:p3udm5528-p3udt1583lv) Units=km Length=0.019528 bus1=p3udt1583lv.1.2 bus2=p3udm5528.1.2 switch=n enabled=y phases=2 Linecode=1P_OH_AL_2/0_Rucina_0_416_0_2_2_2_2

New Line.l(r:p3udm5529-p3ulv73866) Units=km Length=0.0286365 bus1=p3udm5529.1.2 bus2=p3ulv73866.1.2 switch=n enabled=y phases=2 Linecode=1P_OH_AL_4/0_Zuzara_0_416_0_2_2_2_2

New Line.l(r:p3udm5529-p3udt1583lv) Units=km Length=0.0195234 bus1=p3udt1583lv.1.2 bus2=p3udm5529.1.2 switch=n enabled=y phases=2 Linecode=1P_OH_AL_2/0_Rucina_0_416_0_2_2_2_2

New Line.l(r:p3udm8088-p3ulv2556) Units=km Length=0.0173589 bus1=p3udm8088.1.2 bus2=p3ulv2556.1.2 switch=n enabled=y phases=2 Linecode=1P_OH_AL_2/0_Rucina_0_416_0_2_2_2_2

New Line.l(r:p3udm8088-p3udt2313lv) Units=km Length=0.0195234 bus1=p3udt2313lv.1.2 bus2=p3udm8088.1.2 switch=n enabled=y phases=2 Linecode=1P_OH_AL_2/0_Rucina_0_416_0_2_2_2_2

New Line.l(r:p3udm8089-p3ulv40017) Units=km Length=0.0196257 bus1=p3udm8089.1.2 bus2=p3ulv40017.1.2 switch=n enabled=y phases=2 Linecode=1P_OH_AL_2/0_Rucina_0_416_0_2_2_2_2

New Line.l(r:p3udm8089-p3udt2313lv) Units=km Length=0.0195234 bus1=p3udt2313lv.1.2 bus2=p3udm8089.1.2 switch=n enabled=y phases=2 Linecode=1P_OH_AL_2/0_Rucina_0_416_0_2_2_2_2

New Line.l(r:p3udm8090-p3ulv2557) Units=km Length=0.019302500000000004 bus1=p3udm8090.1.2 bus2=p3ulv2557.1.2 switch=n enabled=y phases=2 Linecode=1P_OH_AL_2/0_Rucina_0_416_0_2_2_2_2

New Line.l(r:p3udm8090-p3udt2314lv) Units=km Length=0.0772347 bus1=p3udt2314lv.1.2 bus2=p3udm8090.1.2 switch=n enabled=y phases=2 Linecode=1P_OH_AL_4/0_Zuzara_0_416_0_2_2_2_2

New Line.l(r:p3udm8091-p3ulv64600) Units=km Length=0.0266711 bus1=p3udm8091.1.2 bus2=p3ulv64600.1.2 switch=n enabled=y phases=2 Linecode=1P_OH_AL_2/0_Rucina_0_416_0_2_2_2_2

New Line.l(r:p3udm8091-p3udt2314lv) Units=km Length=0.0173403 bus1=p3udt2314lv.1.2 bus2=p3udm8091.1.2 switch=n enabled=y phases=2 Linecode=1P_OH_AL_2/0_Rucina_0_416_0_2_2_2_2

New Line.l(r:p3udt2315lv-p3ulv2558) Units=km Length=0.0349463 bus1=p3udt2315lv.1.2 bus2=p3ulv2558.1.2 switch=n enabled=y phases=2 Linecode=1P_OH_AL_4/0_Zuzara_0_416_0_2_2_2_2

New Line.l(r:p3udm8093-p3ulv4160) Units=km Length=0.0403689 bus1=p3udm8093.1.2 bus2=p3ulv4160.1.2 switch=n enabled=y phases=2 Linecode=1P_OH_AL_4/0_Zuzara_0_416_0_2_2_2_2

New Line.l(r:p3udm8093-p3udt2315lv) Units=km Length=0.0177222 bus1=p3udt2315lv.1.2 bus2=p3udm8093.1.2 switch=n enabled=y phases=2 Linecode=1P_OH_AL_2/0_Rucina_0_416_0_2_2_2_2

New Line.l(r:p3udm10578-p3ulv3340) Units=km Length=0.0384433 bus1=p3udm10578.1.2 bus2=p3ulv3340.1.2 switch=n enabled=y phases=2 Linecode=1P_OH_AL_4/0_Zuzara_0_416_0_2_2_2_2

New Line.l(r:p3udm10578-p3udt3025lv) Units=km Length=0.0189155 bus1=p3udt3025lv.1.2 bus2=p3udm10578.1.2 switch=n enabled=y phases=2 Linecode=1P_OH_AL_2/0_Rucina_0_416_0_2_2_2_2

New Line.l(r:p3udm10579-p3ulv4158) Units=km Length=0.0256944 bus1=p3udm10579.1.2 bus2=p3ulv4158.1.2 switch=n enabled=y phases=2 Linecode=1P_OH_AL_2/0_Rucina_0_416_0_2_2_2_2

New Line.l(r:p3udm10579-p3udt3025lv) Units=km Length=0.0189082 bus1=p3udt3025lv.1.2 bus2=p3udm10579.1.2 switch=n enabled=y phases=2 Linecode=1P_OH_AL_2/0_Rucina_0_416_0_2_2_2_2

New Line.l(r:p3udt3745lv-p3ulv62336) Units=km Length=0.109404 bus1=p3udt3745lv.1.2 bus2=p3ulv62336.1.2 switch=n enabled=y phases=2 Linecode=1P_OH_AL_4/0_Zuzara_0_416_0_2_2_2_2

New Line.l(r:p3udm13013-p3ulv4157) Units=km Length=0.0887056 bus1=p3udm13013.1.2 bus2=p3ulv4157.1.2 switch=n enabled=y phases=2 Linecode=1P_OH_AL_4/0_Zuzara_0_416_0_2_2_2_2

New Line.l(r:p3udm13013-p3udt3745lv) Units=km Length=0.0192842 bus1=p3udt3745lv.1.2 bus2=p3udm13013.1.2 switch=n enabled=y phases=2 Linecode=1P_OH_AL_2/0_Rucina_0_416_0_2_2_2_2

New Line.l(r:p3udt3746lv-p3ulv76929) Units=km Length=0.0345234 bus1=p3udt3746lv.1.2 bus2=p3ulv76929.1.2 switch=n enabled=y phases=2 Linecode=1P_OH_AL_4/0_Zuzara_0_416_0_2_2_2_2

New Line.l(r:p3udm13015-p3ulv4159) Units=km Length=0.0158165 bus1=p3udm13015.1.2 bus2=p3ulv4159.1.2 switch=n enabled=y phases=2 Linecode=1P_OH_AL_2/0_Rucina_0_416_0_2_2_2_2

New Line.l(r:p3udm13015-p3udt3746lv) Units=km Length=0.0394977 bus1=p3udt3746lv.1.2 bus2=p3udm13015.1.2 switch=n enabled=y phases=2 Linecode=1P_OH_AL_4/0_Zuzara_0_416_0_2_2_2_2

New Line.l(r:p3udm13016-p3ulv29949) Units=km Length=0.0332895 bus1=p3udm13016.1.2 bus2=p3ulv29949.1.2 switch=n enabled=y phases=2 Linecode=1P_OH_AL_4/0_Zuzara_0_416_0_2_2_2_2

New Line.l(r:p3udm13016-p3ulv40821) Units=km Length=0.0150283 bus1=p3udm13016.1.2 bus2=p3ulv40821.1.2 switch=n enabled=y phases=2 Linecode=1P_OH_AL_2/0_Rucina_0_416_0_2_2_2_2

New Line.l(r:p3udm13016-p3udt3746lv) Units=km Length=0.0197465 bus1=p3udt3746lv.1.2 bus2=p3udm13016.1.2 switch=n enabled=y phases=2 Linecode=1P_OH_AL_2/0_Rucina_0_416_0_2_2_2_2

New Line.l(r:p3udt4431lv-p3ulv30716) Units=km Length=0.0254902 bus1=p3udt4431lv.1.2 bus2=p3ulv30716.1.2 switch=n enabled=y phases=2 Linecode=1P_OH_AL_2/0_Rucina_0_416_0_2_2_2_2

New Line.l(r:p3udt4431lv-p3ulv38442) Units=km Length=0.0551454 bus1=p3udt4431lv.1.2 bus2=p3ulv38442.1.2 switch=n enabled=y phases=2 Linecode=1P_OH_AL_4/0_Zuzara_0_416_0_2_2_2_2

New Line.l(r:p3udm15377-p3ulv4924) Units=km Length=0.0380475 bus1=p3udm15377.1.2 bus2=p3ulv4924.1.2 switch=n enabled=y phases=2 Linecode=1P_OH_AL_4/0_Zuzara_0_416_0_2_2_2_2

New Line.l(r:p3udm15377-p3udt4431lv) Units=km Length=0.0195577 bus1=p3udt4431lv.1.2 bus2=p3udm15377.1.2 switch=n enabled=y phases=2 Linecode=1P_OH_AL_2/0_Rucina_0_416_0_2_2_2_2

New Line.l(r:p3udm15380-p3ulv46336) Units=km Length=0.0668611 bus1=p3udm15380.1.2 bus2=p3ulv46336.1.2 switch=n enabled=y phases=2 Linecode=1P_OH_AL_4/0_Zuzara_0_416_0_2_2_2_2

New Line.l(r:p3udm15380-p3udt4431lv) Units=km Length=0.0195479 bus1=p3udt4431lv.1.2 bus2=p3udm15380.1.2 switch=n enabled=y phases=2 Linecode=1P_OH_AL_2/0_Rucina_0_416_0_2_2_2_2

New Line.l(r:p3udm17701-p3ulv5747) Units=km Length=0.0170658 bus1=p3udm17701.1.2 bus2=p3ulv5747.1.2 switch=n enabled=y phases=2 Linecode=1P_OH_AL_2/0_Rucina_0_416_0_2_2_2_2

New Line.l(r:p3udm17701-p3udt5123lv) Units=km Length=0.0197465 bus1=p3udt5123lv.1.2 bus2=p3udm17701.1.2 switch=n enabled=y phases=2 Linecode=1P_OH_AL_2/0_Rucina_0_416_0_2_2_2_2

New Line.l(r:p3udm17702-p3ulv40822) Units=km Length=0.016448500000000005 bus1=p3udm17702.1.2 bus2=p3ulv40822.1.2 switch=n enabled=y phases=2 Linecode=1P_OH_AL_2/0_Rucina_0_416_0_2_2_2_2

New Line.l(r:p3udm17702-p3udt5123lv) Units=km Length=0.0394977 bus1=p3udt5123lv.1.2 bus2=p3udm17702.1.2 switch=n enabled=y phases=2 Linecode=1P_OH_AL_4/0_Zuzara_0_416_0_2_2_2_2

New Line.l(r:p3udt5124lv-p3ulv5748) Units=km Length=0.0268159 bus1=p3udt5124lv.1.2 bus2=p3ulv5748.1.2 switch=n enabled=y phases=2 Linecode=1P_OH_AL_2/0_Rucina_0_416_0_2_2_2_2

New Line.l(r:p3udt5124lv-p3ulv28440) Units=km Length=0.0222961 bus1=p3udt5124lv.1.2 bus2=p3ulv28440.1.2 switch=n enabled=y phases=2 Linecode=1P_OH_AL_2/0_Rucina_0_416_0_2_2_2_2

New Line.l(r:p3udt5124lv-p3ulv43915) Units=km Length=0.049209800000000005 bus1=p3udt5124lv.1.2 bus2=p3ulv43915.1.2 switch=n enabled=y phases=2 Linecode=1P_OH_AL_4/0_Zuzara_0_416_0_2_2_2_2

New Line.l(r:p3udt5124lv-p3ulv68511) Units=km Length=0.0486431 bus1=p3udt5124lv.1.2 bus2=p3ulv68511.1.2 switch=n enabled=y phases=2 Linecode=1P_OH_AL_4/0_Zuzara_0_416_0_2_2_2_2

New Line.l(r:p3udt5124lv-p3ulv70034) Units=km Length=0.0270195 bus1=p3udt5124lv.1.2 bus2=p3ulv70034.1.2 switch=n enabled=y phases=2 Linecode=1P_OH_AL_4/0_Zuzara_0_416_0_2_2_2_2

New Line.l(r:p3udt5124lv-p3ulv76930) Units=km Length=0.0151856 bus1=p3udt5124lv.1.2 bus2=p3ulv76930.1.2 switch=n enabled=y phases=2 Linecode=1P_OH_AL_2/0_Rucina_0_416_0_2_2_2_2

New Line.l(r:p3udt5125lv-p3ulv5749) Units=km Length=0.0123538 bus1=p3udt5125lv.1.2 bus2=p3ulv5749.1.2 switch=n enabled=y phases=2 Linecode=1P_OH_AL_2/0_Rucina_0_416_0_2_2_2_2

New Line.l(r:p3udt5125lv-p3ulv32353) Units=km Length=0.0272971 bus1=p3udt5125lv.1.2 bus2=p3ulv32353.1.2 switch=n enabled=y phases=2 Linecode=1P_OH_AL_4/0_Zuzara_0_416_0_2_2_2_2

New Line.l(r:p3udt5126lv-p3ulv55483) Units=km Length=0.0357712 bus1=p3udt5126lv.1.2 bus2=p3ulv55483.1.2 switch=n enabled=y phases=2 Linecode=1P_OH_AL_4/0_Zuzara_0_416_0_2_2_2_2

New Line.l(r:p3udm17711-p3ulv5750) Units=km Length=0.0364709 bus1=p3udm17711.1.2 bus2=p3ulv5750.1.2 switch=n enabled=y phases=2 Linecode=1P_OH_AL_4/0_Zuzara_0_416_0_2_2_2_2

New Line.l(r:p3udm17711-p3udt5126lv) Units=km Length=0.0195457 bus1=p3udt5126lv.1.2 bus2=p3udm17711.1.2 switch=n enabled=y phases=2 Linecode=1P_OH_AL_2/0_Rucina_0_416_0_2_2_2_2

New Line.l(r:p3udt5772lv-p3ulv6539) Units=km Length=0.115117 bus1=p3udt5772lv.1.2 bus2=p3ulv6539.1.2 switch=n enabled=y phases=2 Linecode=1P_OH_AL_4/0_Zuzara_0_416_0_2_2_2_2

New Line.l(r:p3udt5772lv-p3ulv24537) Units=km Length=0.080458 bus1=p3udt5772lv.1.2 bus2=p3ulv24537.1.2 switch=n enabled=y phases=2 Linecode=1P_OH_AL_4/0_Zuzara_0_416_0_2_2_2_2

New Line.l(r:p3udm21972-p3ulv36901) Units=km Length=0.0348505 bus1=p3udm21972.1.2 bus2=p3ulv36901.1.2 switch=n enabled=y phases=2 Linecode=1P_OH_AL_4/0_Zuzara_0_416_0_2_2_2_2

New Line.l(r:p3udm21971-p3ulv7353) Units=km Length=0.0232427 bus1=p3udm21971.1.2 bus2=p3ulv7353.1.2 switch=n enabled=y phases=2 Linecode=1P_OH_AL_2/0_Rucina_0_416_0_2_2_2_2

New Line.l(r:p3udm21971-p3udm21972) Units=km Length=0.0195794 bus1=p3udm21972.1.2 bus2=p3udm21971.1.2 switch=n enabled=y phases=2 Linecode=1P_OH_AL_2/0_Rucina_0_416_0_2_2_2_2

New Line.l(r:p3udm21972-p3udt6416lv) Units=km Length=0.019572 bus1=p3udt6416lv.1.2 bus2=p3udm21972.1.2 switch=n enabled=y phases=2 Linecode=1P_OH_AL_2/0_Rucina_0_416_0_2_2_2_2

New Line.l(r:p3udm21973-p3ulv54727) Units=km Length=0.0174305 bus1=p3udm21973.1.2 bus2=p3ulv54727.1.2 switch=n enabled=y phases=2 Linecode=1P_OH_AL_2/0_Rucina_0_416_0_2_2_2_2

New Line.l(r:p3udm21973-p3ulv71579) Units=km Length=0.03429700000000001 bus1=p3udm21973.1.2 bus2=p3ulv71579.1.2 switch=n enabled=y phases=2 Linecode=1P_OH_AL_4/0_Zuzara_0_416_0_2_2_2_2

New Line.l(r:p3udm21973-p3udt6416lv) Units=km Length=0.019572 bus1=p3udt6416lv.1.2 bus2=p3udm21973.1.2 switch=n enabled=y phases=2 Linecode=1P_OH_AL_2/0_Rucina_0_416_0_2_2_2_2

New Line.l(r:p3udt6417lv-p3ulv7354) Units=km Length=0.0393885 bus1=p3udt6417lv.1.2 bus2=p3ulv7354.1.2 switch=n enabled=y phases=2 Linecode=1P_UG_AL_1/0_Brenau_0_416_0_2_2_2_2

New Line.l(r:p3udt6417lv-p3ulv17499) Units=km Length=0.0311316 bus1=p3udt6417lv.1.2 bus2=p3ulv17499.1.2 switch=n enabled=y phases=2 Linecode=1P_UG_AL_1/0_Brenau_0_416_0_2_2_2_2

New Line.l(r:p3udt6417lv-p3ulv52399) Units=km Length=0.0426374 bus1=p3udt6417lv.1.2 bus2=p3ulv52399.1.2 switch=n enabled=y phases=2 Linecode=1P_UG_AL_1/0_Brenau_0_416_0_2_2_2_2

New Line.l(r:p3udt6417lv-p3ulv58544) Units=km Length=0.0315053 bus1=p3udt6417lv.1.2 bus2=p3ulv58544.1.2 switch=n enabled=y phases=2 Linecode=1P_UG_AL_1/0_Brenau_0_416_0_2_2_2_2

New Line.l(r:p3udt6417lv-p3ulv78449) Units=km Length=0.0454922 bus1=p3udt6417lv.1.2 bus2=p3ulv78449.1.2 switch=n enabled=y phases=2 Linecode=1P_UG_AL_1/0_Brenau_0_416_0_2_2_2_2

New Line.l(r:p3udm21978-p3ulv32354) Units=km Length=0.0281858 bus1=p3udm21978.1.2 bus2=p3ulv32354.1.2 switch=n enabled=y phases=2 Linecode=1P_UG_AL_1/0_Brenau_0_416_0_2_2_2_2

New Line.l(r:p3udm21976-p3ulv8152) Units=km Length=0.0275253 bus1=p3udm21976.1.2 bus2=p3ulv8152.1.2 switch=n enabled=y phases=2 Linecode=1P_UG_AL_1/0_Brenau_0_416_0_2_2_2_2

New Line.l(r:p3udm21976-p3udm21978) Units=km Length=0.0552407 bus1=p3udm21978.1.2 bus2=p3udm21976.1.2 switch=n enabled=y phases=2 Linecode=1P_UG_AL_1/0_Brenau_0_416_0_2_2_2_2

New Line.l(r:p3udm21978-p3udt6417lv) Units=km Length=0.0137064 bus1=p3udt6417lv.1.2 bus2=p3udm21978.1.2 switch=n enabled=y phases=2 Linecode=1P_UG_AL_4/0_Sweetbriar_0_416_0_2_2_2_2

New Line.l(r:p3udm21982-p3ulv7355) Units=km Length=0.0372514 bus1=p3udm21982.1.2 bus2=p3ulv7355.1.2 switch=n enabled=y phases=2 Linecode=1P_OH_AL_4/0_Zuzara_0_416_0_2_2_2_2

New Line.l(r:p3udm21982-p3udt6418lv) Units=km Length=0.0192047 bus1=p3udt6418lv.1.2 bus2=p3udm21982.1.2 switch=n enabled=y phases=2 Linecode=1P_OH_AL_2/0_Rucina_0_416_0_2_2_2_2

New Line.l(r:p3udm21983-p3ulv11275) Units=km Length=0.00613942 bus1=p3udm21983.1.2 bus2=p3ulv11275.1.2 switch=n enabled=y phases=2 Linecode=1P_OH_AL_2/0_Rucina_0_416_0_2_2_2_2

New Line.l(r:p3udm21983-p3udt6418lv) Units=km Length=0.0459642 bus1=p3udt6418lv.1.2 bus2=p3udm21983.1.2 switch=n enabled=y phases=2 Linecode=1P_OH_AL_4/0_Zuzara_0_416_0_2_2_2_2

New Line.l(r:p3udt6419lv-p3ulv53185) Units=km Length=0.0388069 bus1=p3udt6419lv.1.2 bus2=p3ulv53185.1.2 switch=n enabled=y phases=2 Linecode=1P_UG_AL_1/0_Brenau_0_416_0_2_2_2_2

New Line.l(r:p3udm21984-p3ulv7356) Units=km Length=0.06968520000000002 bus1=p3udm21984.1.2 bus2=p3ulv7356.1.2 switch=n enabled=y phases=2 Linecode=1P_UG_AL_1/0_Brenau_0_416_0_2_2_2_2

New Line.l(r:p3udm21984-p3udt6419lv) Units=km Length=0.009796540000000001 bus1=p3udt6419lv.1.2 bus2=p3udm21984.1.2 switch=n enabled=y phases=2 Linecode=1P_UG_AL_1/0_Brenau_0_416_0_2_2_2_2

New Line.l(r:p3udm21985-p3ulv9631) Units=km Length=0.0149525 bus1=p3udm21985.1.2 bus2=p3ulv9631.1.2 switch=n enabled=y phases=2 Linecode=1P_UG_AL_1/0_Brenau_0_416_0_2_2_2_2

New Line.l(r:p3udm21985-p3udt6419lv) Units=km Length=0.00978777 bus1=p3udt6419lv.1.2 bus2=p3udm21985.1.2 switch=n enabled=y phases=2 Linecode=1P_UG_AL_1/0_Brenau_0_416_0_2_2_2_2

New Line.l(r:p3udm21987-p3ulv7357) Units=km Length=0.017549 bus1=p3udm21987.1.2 bus2=p3ulv7357.1.2 switch=n enabled=y phases=2 Linecode=1P_UG_AL_1/0_Brenau_0_416_0_2_2_2_2

New Line.l(r:p3udm21987-p3ulv26918) Units=km Length=0.022583600000000002 bus1=p3udm21987.1.2 bus2=p3ulv26918.1.2 switch=n enabled=y phases=2 Linecode=1P_UG_AL_1/0_Brenau_0_416_0_2_2_2_2

New Line.l(r:p3udm21988-p3ulv18281) Units=km Length=0.0284556 bus1=p3udm21988.1.2 bus2=p3ulv18281.1.2 switch=n enabled=y phases=2 Linecode=1P_UG_AL_1/0_Brenau_0_416_0_2_2_2_2

New Line.l(r:p3udm21987-p3udm21988) Units=km Length=0.0706708 bus1=p3udm21987.1.2 bus2=p3udm21988.1.2 switch=n enabled=y phases=2 Linecode=1P_UG_AL_1/0_Brenau_0_416_0_2_2_2_2

New Line.l(r:p3udm21987-p3udt6420lv) Units=km Length=0.0190033 bus1=p3udt6420lv.1.2 bus2=p3udm21987.1.2 switch=n enabled=y phases=2 Linecode=1P_UG_AL_4/0_Sweetbriar_0_416_0_2_2_2_2

New Line.l(r:p3udm21990-p3ulv54728) Units=km Length=0.0288988 bus1=p3udm21990.1.2 bus2=p3ulv54728.1.2 switch=n enabled=y phases=2 Linecode=1P_UG_AL_1/0_Brenau_0_416_0_2_2_2_2

New Line.l(r:p3udm21990-p3udt6420lv) Units=km Length=0.0285162 bus1=p3udt6420lv.1.2 bus2=p3udm21990.1.2 switch=n enabled=y phases=2 Linecode=1P_UG_AL_1/0_Brenau_0_416_0_2_2_2_2

New Line.l(r:p3udm24125-p3ulv8150) Units=km Length=0.0242302 bus1=p3udm24125.1.2 bus2=p3ulv8150.1.2 switch=n enabled=y phases=2 Linecode=1P_OH_AL_2/0_Rucina_0_416_0_2_2_2_2

New Line.l(r:p3udm24125-p3udt7050lv) Units=km Length=0.0391061 bus1=p3udt7050lv.1.2 bus2=p3udm24125.1.2 switch=n enabled=y phases=2 Linecode=1P_OH_AL_4/0_Zuzara_0_416_0_2_2_2_2

New Line.l(r:p3udm24126-p3ulv75344) Units=km Length=0.023487 bus1=p3udm24126.1.2 bus2=p3ulv75344.1.2 switch=n enabled=y phases=2 Linecode=1P_OH_AL_2/0_Rucina_0_416_0_2_2_2_2

New Line.l(r:p3udm24126-p3udt7050lv) Units=km Length=0.0195507 bus1=p3udt7050lv.1.2 bus2=p3udm24126.1.2 switch=n enabled=y phases=2 Linecode=1P_OH_AL_2/0_Rucina_0_416_0_2_2_2_2

New Line.l(r:p3udt7633lv-p3ulv8908) Units=km Length=0.0255685 bus1=p3udt7633lv.1.2 bus2=p3ulv8908.1.2 switch=n enabled=y phases=2 Linecode=1P_OH_AL_2/0_Rucina_0_416_0_2_2_2_2

New Line.l(r:p3udt7634lv-p3ulv8909) Units=km Length=0.0868581 bus1=p3udt7634lv.1.2 bus2=p3ulv8909.1.2 switch=n enabled=y phases=2 Linecode=1P_OH_AL_4/0_Zuzara_0_416_0_2_2_2_2

New Line.l(r:p3udm27768-p3ulv9630) Units=km Length=0.0162631 bus1=p3udm27768.1.2 bus2=p3ulv9630.1.2 switch=n enabled=y phases=2 Linecode=1P_OH_AL_2/0_Rucina_0_416_0_2_2_2_2

New Line.l(r:p3udm27768-p3udt8192lv) Units=km Length=0.0195306 bus1=p3udt8192lv.1.2 bus2=p3udm27768.1.2 switch=n enabled=y phases=2 Linecode=1P_OH_AL_2/0_Rucina_0_416_0_2_2_2_2

New Line.l(r:p3udm27769-p3ulv53184) Units=km Length=0.0244374 bus1=p3udm27769.1.2 bus2=p3ulv53184.1.2 switch=n enabled=y phases=2 Linecode=1P_OH_AL_2/0_Rucina_0_416_0_2_2_2_2

New Line.l(r:p3udm27769-p3udt8192lv) Units=km Length=0.0195219 bus1=p3udt8192lv.1.2 bus2=p3udm27769.1.2 switch=n enabled=y phases=2 Linecode=1P_OH_AL_2/0_Rucina_0_416_0_2_2_2_2

New Line.l(r:p3udm27770-p3ulv9632) Units=km Length=0.0547995 bus1=p3udm27770.1.2 bus2=p3ulv9632.1.2 switch=n enabled=y phases=2 Linecode=1P_OH_AL_4/0_Zuzara_0_416_0_2_2_2_2

New Line.l(r:p3udm27770-p3udt8193lv) Units=km Length=0.0195554 bus1=p3udt8193lv.1.2 bus2=p3udm27770.1.2 switch=n enabled=y phases=2 Linecode=1P_OH_AL_2/0_Rucina_0_416_0_2_2_2_2

New Line.l(r:p3udm27771-p3ulv24536) Units=km Length=0.0390493 bus1=p3udm27771.1.2 bus2=p3ulv24536.1.2 switch=n enabled=y phases=2 Linecode=1P_OH_AL_4/0_Zuzara_0_416_0_2_2_2_2

New Line.l(r:p3udm27771-p3udt8193lv) Units=km Length=0.0195507 bus1=p3udt8193lv.1.2 bus2=p3udm27771.1.2 switch=n enabled=y phases=2 Linecode=1P_OH_AL_2/0_Rucina_0_416_0_2_2_2_2

New Line.l(r:p3udt8194lv-p3ulv79245) Units=km Length=0.0262206 bus1=p3udt8194lv.1.2 bus2=p3ulv79245.1.2 switch=n enabled=y phases=2 Linecode=1P_OH_AL_2/0_Rucina_0_416_0_2_2_2_2

New Line.l(r:p3udm27772-p3ulv9633) Units=km Length=0.0225346 bus1=p3udm27772.1.2 bus2=p3ulv9633.1.2 switch=n enabled=y phases=2 Linecode=1P_OH_AL_2/0_Rucina_0_416_0_2_2_2_2

New Line.l(r:p3udm27772-p3udt8194lv) Units=km Length=0.0390796 bus1=p3udt8194lv.1.2 bus2=p3udm27772.1.2 switch=n enabled=y phases=2 Linecode=1P_OH_AL_4/0_Zuzara_0_416_0_2_2_2_2

New Line.l(r:p3udm27773-p3ulv66154) Units=km Length=0.0277503 bus1=p3udm27773.1.2 bus2=p3ulv66154.1.2 switch=n enabled=y phases=2 Linecode=1P_OH_AL_4/0_Zuzara_0_416_0_2_2_2_2

New Line.l(r:p3udm27773-p3udt8194lv) Units=km Length=0.0195352 bus1=p3udt8194lv.1.2 bus2=p3udm27773.1.2 switch=n enabled=y phases=2 Linecode=1P_OH_AL_2/0_Rucina_0_416_0_2_2_2_2

New Line.l(r:p3udt8771lv-p3ulv59304) Units=km Length=0.0269934 bus1=p3udt8771lv.1.2 bus2=p3ulv59304.1.2 switch=n enabled=y phases=2 Linecode=1P_OH_AL_2/0_Rucina_0_416_0_2_2_2_2

New Line.l(r:p3udm29606-p3ulv10437) Units=km Length=0.0278098 bus1=p3udm29606.1.2 bus2=p3ulv10437.1.2 switch=n enabled=y phases=2 Linecode=1P_OH_AL_4/0_Zuzara_0_416_0_2_2_2_2

New Line.l(r:p3udm29606-p3udt8771lv) Units=km Length=0.0572274 bus1=p3udt8771lv.1.2 bus2=p3udm29606.1.2 switch=n enabled=y phases=2 Linecode=1P_OH_AL_4/0_Zuzara_0_416_0_2_2_2_2

New Line.l(r:p3udt9342lv-p3ulv11273) Units=km Length=0.0243895 bus1=p3udt9342lv.1.2 bus2=p3ulv11273.1.2 switch=n enabled=y phases=2 Linecode=1P_OH_AL_2/0_Rucina_0_416_0_2_2_2_2

New Line.l(r:p3udt9343lv-p3ulv11274) Units=km Length=0.030452900000000005 bus1=p3udt9343lv.1.2 bus2=p3ulv11274.1.2 switch=n enabled=y phases=2 Linecode=1P_OH_AL_4/0_Zuzara_0_416_0_2_2_2_2

New Line.l(r:p3udm31328-p3ulv43918) Units=km Length=0.0119555 bus1=p3udm31328.1.2 bus2=p3ulv43918.1.2 switch=n enabled=y phases=2 Linecode=1P_OH_AL_2/0_Rucina_0_416_0_2_2_2_2

New Line.l(r:p3udm31328-p3udt9343lv) Units=km Length=0.019528 bus1=p3udt9343lv.1.2 bus2=p3udm31328.1.2 switch=n enabled=y phases=2 Linecode=1P_OH_AL_2/0_Rucina_0_416_0_2_2_2_2

New Line.l(r:p3udt9883lv-p3ulv53940) Units=km Length=0.062212 bus1=p3udt9883lv.1.2 bus2=p3ulv53940.1.2 switch=n enabled=y phases=2 Linecode=1P_OH_AL_4/0_Zuzara_0_416_0_2_2_2_2

New Line.l(r:p3udt9883lv-p3ulv57785) Units=km Length=0.0286941 bus1=p3udt9883lv.1.2 bus2=p3ulv57785.1.2 switch=n enabled=y phases=2 Linecode=1P_OH_AL_4/0_Zuzara_0_416_0_2_2_2_2

New Line.l(r:p3udm33001-p3ulv12051) Units=km Length=0.0270529 bus1=p3udm33001.1.2 bus2=p3ulv12051.1.2 switch=n enabled=y phases=2 Linecode=1P_UG_AL_1/0_Brenau_0_416_0_2_2_2_2

New Line.l(r:p3udm33001-p3udt9883lv) Units=km Length=0.0192045 bus1=p3udt9883lv.1.2 bus2=p3udm33001.1.2 switch=n enabled=y phases=2 Linecode=1P_OH_AL_2/0_Rucina_0_416_0_2_2_2_2

New Line.l(r:p3udm33002-p3ulv35449) Units=km Length=0.0263046 bus1=p3udm33002.1.2 bus2=p3ulv35449.1.2 switch=n enabled=y phases=2 Linecode=1P_OH_AL_2/0_Rucina_0_416_0_2_2_2_2

New Line.l(r:p3udm33002-p3udt9883lv) Units=km Length=0.0384049 bus1=p3udt9883lv.1.2 bus2=p3udm33002.1.2 switch=n enabled=y phases=2 Linecode=1P_OH_AL_4/0_Zuzara_0_416_0_2_2_2_2

New Line.l(r:p3udm34565-p3ulv12799) Units=km Length=0.024412600000000003 bus1=p3udm34565.1.2 bus2=p3ulv12799.1.2 switch=n enabled=y phases=2 Linecode=1P_OH_AL_2/0_Rucina_0_416_0_2_2_2_2

New Line.l(r:p3udm34565-p3udt10391lv) Units=km Length=0.0187358 bus1=p3udt10391lv.1.2 bus2=p3udm34565.1.2 switch=n enabled=y phases=2 Linecode=1P_OH_AL_2/0_Rucina_0_416_0_2_2_2_2

New Line.l(r:p3udm34566-p3ulv66929) Units=km Length=0.0237408 bus1=p3udm34566.1.2 bus2=p3ulv66929.1.2 switch=n enabled=y phases=2 Linecode=1P_OH_AL_2/0_Rucina_0_416_0_2_2_2_2

New Line.l(r:p3udm34566-p3udt10391lv) Units=km Length=0.0382994 bus1=p3udt10391lv.1.2 bus2=p3udm34566.1.2 switch=n enabled=y phases=2 Linecode=1P_OH_AL_4/0_Zuzara_0_416_0_2_2_2_2

New Line.l(r:p3udt11899lv-p3ulv15144) Units=km Length=0.0830642 bus1=p3udt11899lv.1.2 bus2=p3ulv15144.1.2 switch=n enabled=y phases=2 Linecode=1P_OH_AL_4/0_Zuzara_0_416_0_2_2_2_2

New Line.l(r:p3udt11899lv-p3ulv43917) Units=km Length=0.0628123 bus1=p3udt11899lv.1.2 bus2=p3ulv43917.1.2 switch=n enabled=y phases=2 Linecode=1P_OH_AL_4/0_Zuzara_0_416_0_2_2_2_2

New Line.l(r:p3udt12418lv-p3ulv15965) Units=km Length=0.0434114 bus1=p3udt12418lv.1.2 bus2=p3ulv15965.1.2 switch=n enabled=y phases=2 Linecode=1P_OH_AL_4/0_Zuzara_0_416_0_2_2_2_2

New Line.l(r:p3udt12418lv-p3ulv26136) Units=km Length=0.0722392 bus1=p3udt12418lv.1.2 bus2=p3ulv26136.1.2 switch=n enabled=y phases=2 Linecode=1P_OH_AL_4/0_Zuzara_0_416_0_2_2_2_2

New Line.l(r:p3udt12418lv-p3ulv29178) Units=km Length=0.0250583 bus1=p3udt12418lv.1.2 bus2=p3ulv29178.1.2 switch=n enabled=y phases=2 Linecode=1P_OH_AL_2/0_Rucina_0_416_0_2_2_2_2

New Line.l(r:p3udt12418lv-p3ulv70843) Units=km Length=0.0785073 bus1=p3udt12418lv.1.2 bus2=p3ulv70843.1.2 switch=n enabled=y phases=2 Linecode=1P_OH_AL_4/0_Zuzara_0_416_0_2_2_2_2

New Line.l(r:p3udt12418lv-p3ulv77694) Units=km Length=0.0650615 bus1=p3udt12418lv.1.2 bus2=p3ulv77694.1.2 switch=n enabled=y phases=2 Linecode=1P_OH_AL_4/0_Zuzara_0_416_0_2_2_2_2

New Line.l(r:p3udt12889lv-p3ulv48586) Units=km Length=0.0180229 bus1=p3udt12889lv.1.2 bus2=p3ulv48586.1.2 switch=n enabled=y phases=2 Linecode=1P_OH_AL_2/0_Rucina_0_416_0_2_2_2_2

New Line.l(r:p3udt12889lv-p3ulv79242) Units=km Length=0.0541892 bus1=p3udt12889lv.1.2 bus2=p3ulv79242.1.2 switch=n enabled=y phases=2 Linecode=1P_OH_AL_4/0_Zuzara_0_416_0_2_2_2_2

New Line.l(r:p3udm41991-p3ulv16781) Units=km Length=0.017827700000000002 bus1=p3udm41991.1.2 bus2=p3ulv16781.1.2 switch=n enabled=y phases=2 Linecode=1P_OH_AL_2/0_Rucina_0_416_0_2_2_2_2

New Line.l(r:p3udm41991-p3udt12889lv) Units=km Length=0.0195256 bus1=p3udt12889lv.1.2 bus2=p3udm41991.1.2 switch=n enabled=y phases=2 Linecode=1P_OH_AL_2/0_Rucina_0_416_0_2_2_2_2

New Line.l(r:p3udm41994-p3ulv80759) Units=km Length=0.0488661 bus1=p3udm41994.1.2 bus2=p3ulv80759.1.2 switch=n enabled=y phases=2 Linecode=1P_OH_AL_4/0_Zuzara_0_416_0_2_2_2_2

New Line.l(r:p3udm41994-p3udt12889lv) Units=km Length=0.0390524 bus1=p3udt12889lv.1.2 bus2=p3udm41994.1.2 switch=n enabled=y phases=2 Linecode=1P_OH_AL_4/0_Zuzara_0_416_0_2_2_2_2

New Line.l(r:p3udm43136-p3ulv17496) Units=km Length=0.00935137 bus1=p3udm43136.1.2 bus2=p3ulv17496.1.2 switch=n enabled=y phases=2 Linecode=1P_OH_AL_2/0_Rucina_0_416_0_2_2_2_2

New Line.l(r:p3udm43139-p3ulv79999) Units=km Length=0.0107905 bus1=p3udm43139.1.2 bus2=p3ulv79999.1.2 switch=n enabled=y phases=2 Linecode=1P_OH_AL_2/0_Rucina_0_416_0_2_2_2_2

New Line.l(r:p3udm43136-p3udm43139) Units=km Length=0.0197512 bus1=p3udm43136.1.2 bus2=p3udm43139.1.2 switch=n enabled=y phases=2 Linecode=1P_OH_AL_2/0_Rucina_0_416_0_2_2_2_2

New Line.l(r:p3udm43136-p3udt13298lv) Units=km Length=0.039493 bus1=p3udt13298lv.1.2 bus2=p3udm43136.1.2 switch=n enabled=y phases=2 Linecode=1P_OH_AL_4/0_Zuzara_0_416_0_2_2_2_2

New Line.l(r:p3udm43137-p3ulv23677) Units=km Length=0.007790130000000001 bus1=p3udm43137.1.2 bus2=p3ulv23677.1.2 switch=n enabled=y phases=2 Linecode=1P_OH_AL_2/0_Rucina_0_416_0_2_2_2_2

New Line.l(r:p3udm43138-p3ulv41588) Units=km Length=0.0293103 bus1=p3udm43138.1.2 bus2=p3ulv41588.1.2 switch=n enabled=y phases=2 Linecode=1P_OH_AL_4/0_Zuzara_0_416_0_2_2_2_2

New Line.l(r:p3udm43137-p3udm43138) Units=km Length=0.0197512 bus1=p3udm43137.1.2 bus2=p3udm43138.1.2 switch=n enabled=y phases=2 Linecode=1P_OH_AL_2/0_Rucina_0_416_0_2_2_2_2

New Line.l(r:p3udm43137-p3udt13298lv) Units=km Length=0.0394888 bus1=p3udt13298lv.1.2 bus2=p3udm43137.1.2 switch=n enabled=y phases=2 Linecode=1P_OH_AL_4/0_Zuzara_0_416_0_2_2_2_2

New Line.l(r:p3udt13299lv-p3ulv17498) Units=km Length=0.0301827 bus1=p3udt13299lv.1.2 bus2=p3ulv17498.1.2 switch=n enabled=y phases=2 Linecode=1P_OH_AL_4/0_Zuzara_0_416_0_2_2_2_2

New Line.l(r:p3udt13721lv-p3ulv51610) Units=km Length=0.0196298 bus1=p3udt13721lv.1.2 bus2=p3ulv51610.1.2 switch=n enabled=y phases=2 Linecode=1P_OH_AL_2/0_Rucina_0_416_0_2_2_2_2

New Line.l(r:p3udm44356-p3ulv18280) Units=km Length=0.0268599 bus1=p3udm44356.1.2 bus2=p3ulv18280.1.2 switch=n enabled=y phases=2 Linecode=1P_OH_AL_2/0_Rucina_0_416_0_2_2_2_2

New Line.l(r:p3udm44356-p3udt13721lv) Units=km Length=0.0195369 bus1=p3udt13721lv.1.2 bus2=p3udm44356.1.2 switch=n enabled=y phases=2 Linecode=1P_OH_AL_2/0_Rucina_0_416_0_2_2_2_2

New Line.l(r:p3udt14127lv-p3ulv19031) Units=km Length=0.051733100000000004 bus1=p3udt14127lv.1.2 bus2=p3ulv19031.1.2 switch=n enabled=y phases=2 Linecode=1P_OH_AL_4/0_Zuzara_0_416_0_2_2_2_2

New Line.l(r:p3udt14127lv-p3ulv47101) Units=km Length=0.0339354 bus1=p3udt14127lv.1.2 bus2=p3ulv47101.1.2 switch=n enabled=y phases=2 Linecode=1P_OH_AL_4/0_Zuzara_0_416_0_2_2_2_2

New Line.l(r:p3udt14127lv-p3ulv47863) Units=km Length=0.02085 bus1=p3udt14127lv.1.2 bus2=p3ulv47863.1.2 switch=n enabled=y phases=2 Linecode=1P_OH_AL_2/0_Rucina_0_416_0_2_2_2_2

New Line.l(r:p3udt14127lv-p3ulv72344) Units=km Length=0.0248903 bus1=p3udt14127lv.1.2 bus2=p3ulv72344.1.2 switch=n enabled=y phases=2 Linecode=1P_OH_AL_2/0_Rucina_0_416_0_2_2_2_2

New Line.l(r:p3udm46597-p3ulv19792) Units=km Length=0.0264139 bus1=p3udm46597.1.2 bus2=p3ulv19792.1.2 switch=n enabled=y phases=2 Linecode=1P_OH_AL_2/0_Rucina_0_416_0_2_2_2_2

New Line.l(r:p3udm46597-p3udt14556lv) Units=km Length=0.0195352 bus1=p3udt14556lv.1.2 bus2=p3udm46597.1.2 switch=n enabled=y phases=2 Linecode=1P_OH_AL_2/0_Rucina_0_416_0_2_2_2_2

New Line.l(r:p3udm46598-p3ulv80002) Units=km Length=0.0289865 bus1=p3udm46598.1.2 bus2=p3ulv80002.1.2 switch=n enabled=y phases=2 Linecode=1P_OH_AL_4/0_Zuzara_0_416_0_2_2_2_2

New Line.l(r:p3udm46598-p3udt14556lv) Units=km Length=0.0195444 bus1=p3udt14556lv.1.2 bus2=p3udm46598.1.2 switch=n enabled=y phases=2 Linecode=1P_OH_AL_2/0_Rucina_0_416_0_2_2_2_2
