New Line.l(r:p1udt345lv-p1ulv9819) Units=km Length=0.019811 bus1=p1udt345lv.1.2 bus2=p1ulv9819.1.2 switch=n enabled=y phases=2 Linecode=1P_UG_AL_4/0_Sweetbriar_0_416_0_2_2_2_2

New Line.l(r:p1udt345lv-p1ulv61356) Units=km Length=0.030876200000000003 bus1=p1udt345lv.1.2 bus2=p1ulv61356.1.2 switch=n enabled=y phases=2 Linecode=1P_UG_AL_1/0_Brenau_0_416_0_2_2_2_2

New Line.l(r:p1udm1224-p1ulv348) Units=km Length=0.0201434 bus1=p1udm1224.1.2 bus2=p1ulv348.1.2 switch=n enabled=y phases=2 Linecode=1P_UG_AL_1/0_Brenau_0_416_0_2_2_2_2

New Line.l(r:p1udm1224-p1udt345lv) Units=km Length=0.0183832 bus1=p1udt345lv.1.2 bus2=p1udm1224.1.2 switch=n enabled=y phases=2 Linecode=1P_UG_AL_1/0_Brenau_0_416_0_2_2_2_2

New Line.l(r:p1udm1227-p1ulv62640) Units=km Length=0.00919745 bus1=p1udm1227.1.2 bus2=p1ulv62640.1.2 switch=n enabled=y phases=2 Linecode=1P_UG_AL_4/0_Sweetbriar_0_416_0_2_2_2_2

New Line.l(r:p1udm1227-p1udt345lv) Units=km Length=0.00914261 bus1=p1udt345lv.1.2 bus2=p1udm1227.1.2 switch=n enabled=y phases=2 Linecode=1P_UG_AL_4/0_Sweetbriar_0_416_0_2_2_2_2

New Line.l(r:p1udt363lv-p1ulv55320) Units=km Length=0.015521500000000002 bus1=p1udt363lv.1.2 bus2=p1ulv55320.1.2 switch=n enabled=y phases=2 Linecode=1P_UG_AL_1/0_Brenau_0_416_0_2_2_2_2

New Line.l(r:p1udm1290-p1ulv366) Units=km Length=0.0143144 bus1=p1udm1290.1.2 bus2=p1ulv366.1.2 switch=n enabled=y phases=2 Linecode=1P_UG_AL_1/0_Brenau_0_416_0_2_2_2_2

New Line.l(r:p1udm1294-p1ulv44057) Units=km Length=0.0158456 bus1=p1udm1294.1.2 bus2=p1ulv44057.1.2 switch=n enabled=y phases=2 Linecode=1P_UG_AL_1/0_Brenau_0_416_0_2_2_2_2

New Line.l(r:p1udm1293-p1ulv39619) Units=km Length=0.015283300000000001 bus1=p1udm1293.1.2 bus2=p1ulv39619.1.2 switch=n enabled=y phases=2 Linecode=1P_UG_AL_1/0_Brenau_0_416_0_2_2_2_2

New Line.l(r:p1udm1293-p1udm1294) Units=km Length=0.00967844 bus1=p1udm1294.1.2 bus2=p1udm1293.1.2 switch=n enabled=y phases=2 Linecode=1P_UG_AL_1/0_Brenau_0_416_0_2_2_2_2

New Line.l(r:p1udm1290-p1udm1294) Units=km Length=0.00967844 bus1=p1udm1290.1.2 bus2=p1udm1294.1.2 switch=n enabled=y phases=2 Linecode=1P_UG_AL_4/0_Sweetbriar_0_416_0_2_2_2_2

New Line.l(r:p1udm1290-p1udt363lv) Units=km Length=0.00968321 bus1=p1udt363lv.1.2 bus2=p1udm1290.1.2 switch=n enabled=y phases=2 Linecode=1P_UG_AL_4/0_Sweetbriar_0_416_0_2_2_2_2

New Line.l(r:p1udm1292-p1ulv2317) Units=km Length=0.016478 bus1=p1udm1292.1.2 bus2=p1ulv2317.1.2 switch=n enabled=y phases=2 Linecode=1P_UG_AL_1/0_Brenau_0_416_0_2_2_2_2

New Line.l(r:p1udm1291-p1ulv384) Units=km Length=0.0152821 bus1=p1udm1291.1.2 bus2=p1ulv384.1.2 switch=n enabled=y phases=2 Linecode=1P_UG_AL_1/0_Brenau_0_416_0_2_2_2_2

New Line.l(r:p1udm1291-p1udm1292) Units=km Length=0.0193569 bus1=p1udm1292.1.2 bus2=p1udm1291.1.2 switch=n enabled=y phases=2 Linecode=1P_UG_AL_1/0_Brenau_0_416_0_2_2_2_2

New Line.l(r:p1udm1292-p1udt363lv) Units=km Length=0.00967844 bus1=p1udt363lv.1.2 bus2=p1udm1292.1.2 switch=n enabled=y phases=2 Linecode=1P_UG_AL_4/0_Sweetbriar_0_416_0_2_2_2_2

New Line.l(r:p1udt369lv-p1ulv372) Units=km Length=0.0257562 bus1=p1udt369lv.1.2 bus2=p1ulv372.1.2 switch=n enabled=y phases=2 Linecode=1P_OH_AL_2/0_Rucina_0_416_0_2_2_2_2

New Line.l(r:p1udm1322-p1ulv2304) Units=km Length=0.0676754 bus1=p1udm1322.1.2 bus2=p1ulv2304.1.2 switch=n enabled=y phases=2 Linecode=1P_OH_AL_4/0_Zuzara_0_416_0_2_2_2_2

New Line.l(r:p1udm1322-p1ulv55900) Units=km Length=0.0770293 bus1=p1udm1322.1.2 bus2=p1ulv55900.1.2 switch=n enabled=y phases=2 Linecode=1P_OH_AL_4/0_Zuzara_0_416_0_2_2_2_2

New Line.l(r:p1udm1322-p1udt369lv) Units=km Length=0.0196634 bus1=p1udt369lv.1.2 bus2=p1udm1322.1.2 switch=n enabled=y phases=2 Linecode=1P_OH_AL_2/0_Rucina_0_416_0_2_2_2_2

New Line.l(r:p1udm1323-p1ulv26970) Units=km Length=0.0252359 bus1=p1udm1323.1.2 bus2=p1ulv26970.1.2 switch=n enabled=y phases=2 Linecode=1P_OH_AL_2/0_Rucina_0_416_0_2_2_2_2

New Line.l(r:p1udm1324-p1ulv33328) Units=km Length=0.0620648 bus1=p1udm1324.1.2 bus2=p1ulv33328.1.2 switch=n enabled=y phases=2 Linecode=1P_OH_AL_4/0_Zuzara_0_416_0_2_2_2_2

New Line.l(r:p1udm1323-p1udm1324) Units=km Length=0.0196634 bus1=p1udm1323.1.2 bus2=p1udm1324.1.2 switch=n enabled=y phases=2 Linecode=1P_OH_AL_2/0_Rucina_0_416_0_2_2_2_2

New Line.l(r:p1udm1323-p1udt369lv) Units=km Length=0.0393268 bus1=p1udt369lv.1.2 bus2=p1udm1323.1.2 switch=n enabled=y phases=2 Linecode=1P_OH_AL_4/0_Zuzara_0_416_0_2_2_2_2

New Line.l(r:p1udt381lv-p1ulv9859) Units=km Length=0.015018500000000002 bus1=p1udt381lv.1.2 bus2=p1ulv9859.1.2 switch=n enabled=y phases=2 Linecode=1P_UG_AL_1/0_Brenau_0_416_0_2_2_2_2

New Line.l(r:p1udm1362-p1ulv385) Units=km Length=0.0145129 bus1=p1udm1362.1.2 bus2=p1ulv385.1.2 switch=n enabled=y phases=2 Linecode=1P_UG_AL_1/0_Brenau_0_416_0_2_2_2_2

New Line.l(r:p1udm1362-p1udt381lv) Units=km Length=0.00976459 bus1=p1udt381lv.1.2 bus2=p1udm1362.1.2 switch=n enabled=y phases=2 Linecode=1P_UG_AL_1/0_Brenau_0_416_0_2_2_2_2

New Line.l(r:p1udm1364-p1ulv14208) Units=km Length=0.0161569 bus1=p1udm1364.1.2 bus2=p1ulv14208.1.2 switch=n enabled=y phases=2 Linecode=1P_UG_AL_4/0_Sweetbriar_0_416_0_2_2_2_2

New Line.l(r:p1udm1364-p1udt381lv) Units=km Length=0.0195428 bus1=p1udt381lv.1.2 bus2=p1udm1364.1.2 switch=n enabled=y phases=2 Linecode=1P_UG_AL_4/0_Sweetbriar_0_416_0_2_2_2_2

New Line.l(r:p1udt969lv-p1ulv989) Units=km Length=0.00856076 bus1=p1udt969lv.1.2 bus2=p1ulv989.1.2 switch=n enabled=y phases=2 Linecode=1P_OH_AL_2/0_Rucina_0_416_0_2_2_2_2

New Line.l(r:p1udt969lv-p1ulv26965) Units=km Length=0.0279109 bus1=p1udt969lv.1.2 bus2=p1ulv26965.1.2 switch=n enabled=y phases=2 Linecode=1P_OH_AL_4/0_Zuzara_0_416_0_2_2_2_2

New Line.l(r:p1udm3576-p1ulv999) Units=km Length=0.0020484600000000006 bus1=p1udm3576.1.2 bus2=p1ulv999.1.2 switch=n enabled=y phases=2 Linecode=1P_OH_AL_4_Periwinkle_0_416_0_2_2_2_2

New Line.l(r:p1udm3578-p1ulv21265) Units=km Length=0.00241628 bus1=p1udm3578.1.2 bus2=p1ulv21265.1.2 switch=n enabled=y phases=2 Linecode=1P_OH_AL_4_Periwinkle_0_416_0_2_2_2_2

New Line.l(r:p1udm3576-p1udm3578) Units=km Length=0.0103437 bus1=p1udm3576.1.2 bus2=p1udm3578.1.2 switch=n enabled=y phases=2 Linecode=1P_OH_AL_2/0_Rucina_0_416_0_2_2_2_2

New Line.l(r:p1udm3576-p1udt979lv) Units=km Length=0.0100715 bus1=p1udt979lv.1.2 bus2=p1udm3576.1.2 switch=n enabled=y phases=2 Linecode=1P_OH_AL_2/0_Rucina_0_416_0_2_2_2_2

New Line.l(r:p1udm3577-p1ulv11704) Units=km Length=0.0021010900000000003 bus1=p1udm3577.1.2 bus2=p1ulv11704.1.2 switch=n enabled=y phases=2 Linecode=1P_OH_AL_4_Periwinkle_0_416_0_2_2_2_2

New Line.l(r:p1udm3579-p1ulv38394) Units=km Length=0.0025749000000000006 bus1=p1udm3579.1.2 bus2=p1ulv38394.1.2 switch=n enabled=y phases=2 Linecode=1P_OH_AL_4_Periwinkle_0_416_0_2_2_2_2

New Line.l(r:p1udm3577-p1udm3579) Units=km Length=0.010537300000000001 bus1=p1udm3577.1.2 bus2=p1udm3579.1.2 switch=n enabled=y phases=2 Linecode=1P_OH_AL_2/0_Rucina_0_416_0_2_2_2_2

New Line.l(r:p1udm3577-p1udt979lv) Units=km Length=0.0100715 bus1=p1udt979lv.1.2 bus2=p1udm3577.1.2 switch=n enabled=y phases=2 Linecode=1P_OH_AL_2/0_Rucina_0_416_0_2_2_2_2

New Line.l(r:p1udt981lv-p1ulv1001) Units=km Length=0.0165346 bus1=p1udt981lv.1.2 bus2=p1ulv1001.1.2 switch=n enabled=y phases=2 Linecode=1P_OH_AL_2/0_Rucina_0_416_0_2_2_2_2

New Line.l(r:p1udt981lv-p1ulv58328) Units=km Length=0.0167319 bus1=p1udt981lv.1.2 bus2=p1ulv58328.1.2 switch=n enabled=y phases=2 Linecode=1P_OH_AL_2/0_Rucina_0_416_0_2_2_2_2

New Line.l(r:p1udm3585-p1ulv4197) Units=km Length=0.018864800000000004 bus1=p1udm3585.1.2 bus2=p1ulv4197.1.2 switch=n enabled=y phases=2 Linecode=1P_OH_AL_2/0_Rucina_0_416_0_2_2_2_2

New Line.l(r:p1udm3585-p1udt981lv) Units=km Length=0.0173612 bus1=p1udt981lv.1.2 bus2=p1udm3585.1.2 switch=n enabled=y phases=2 Linecode=1P_OH_AL_2/0_Rucina_0_416_0_2_2_2_2

New Line.l(r:p1udm3586-p1ulv9858) Units=km Length=0.016471 bus1=p1udm3586.1.2 bus2=p1ulv9858.1.2 switch=n enabled=y phases=2 Linecode=1P_OH_AL_2/0_Rucina_0_416_0_2_2_2_2

New Line.l(r:p1udm3586-p1ulv47831) Units=km Length=0.0166771 bus1=p1udm3586.1.2 bus2=p1ulv47831.1.2 switch=n enabled=y phases=2 Linecode=1P_OH_AL_2/0_Rucina_0_416_0_2_2_2_2

New Line.l(r:p1udm3586-p1udt981lv) Units=km Length=0.0173524 bus1=p1udt981lv.1.2 bus2=p1udm3586.1.2 switch=n enabled=y phases=2 Linecode=1P_OH_AL_2/0_Rucina_0_416_0_2_2_2_2

New Line.l(r:p1udt982lv-p1ulv55318) Units=km Length=0.0158573 bus1=p1udt982lv.1.2 bus2=p1ulv55318.1.2 switch=n enabled=y phases=2 Linecode=1P_UG_AL_1/0_Brenau_0_416_0_2_2_2_2

New Line.l(r:p1udm3589-p1ulv1002) Units=km Length=0.0155024 bus1=p1udm3589.1.2 bus2=p1ulv1002.1.2 switch=n enabled=y phases=2 Linecode=1P_UG_AL_1/0_Brenau_0_416_0_2_2_2_2

New Line.l(r:p1udm3589-p1ulv14207) Units=km Length=0.0156004 bus1=p1udm3589.1.2 bus2=p1ulv14207.1.2 switch=n enabled=y phases=2 Linecode=1P_UG_AL_1/0_Brenau_0_416_0_2_2_2_2

New Line.l(r:p1udm3589-p1udt982lv) Units=km Length=0.00969534 bus1=p1udt982lv.1.2 bus2=p1udm3589.1.2 switch=n enabled=y phases=2 Linecode=1P_UG_AL_4/0_Sweetbriar_0_416_0_2_2_2_2

New Line.l(r:p1udm3592-p1ulv57143) Units=km Length=0.0151887 bus1=p1udm3592.1.2 bus2=p1ulv57143.1.2 switch=n enabled=y phases=2 Linecode=1P_UG_AL_1/0_Brenau_0_416_0_2_2_2_2

New Line.l(r:p1udm3592-p1udt982lv) Units=km Length=0.0388179 bus1=p1udt982lv.1.2 bus2=p1udm3592.1.2 switch=n enabled=y phases=2 Linecode=1P_UG_AL_1/0_Brenau_0_416_0_2_2_2_2

New Line.l(r:p1udt983lv-p1ulv1003) Units=km Length=0.0157872 bus1=p1udt983lv.1.2 bus2=p1ulv1003.1.2 switch=n enabled=y phases=2 Linecode=1P_UG_AL_1/0_Brenau_0_416_0_2_2_2_2

New Line.l(r:p1udt983lv-p1ulv30750) Units=km Length=0.0144975 bus1=p1udt983lv.1.2 bus2=p1ulv30750.1.2 switch=n enabled=y phases=2 Linecode=1P_UG_AL_1/0_Brenau_0_416_0_2_2_2_2

New Line.l(r:p1udm3594-p1ulv4826) Units=km Length=0.0145475 bus1=p1udm3594.1.2 bus2=p1ulv4826.1.2 switch=n enabled=y phases=2 Linecode=1P_UG_AL_1/0_Brenau_0_416_0_2_2_2_2

New Line.l(r:p1udm3594-p1udt983lv) Units=km Length=0.0098851 bus1=p1udt983lv.1.2 bus2=p1udm3594.1.2 switch=n enabled=y phases=2 Linecode=1P_UG_AL_1/0_Brenau_0_416_0_2_2_2_2

New Line.l(r:p1udm3596-p1ulv39631) Units=km Length=0.0156697 bus1=p1udm3596.1.2 bus2=p1ulv39631.1.2 switch=n enabled=y phases=2 Linecode=1P_UG_AL_1/0_Brenau_0_416_0_2_2_2_2

New Line.l(r:p1udm3596-p1ulv59541) Units=km Length=0.0151972 bus1=p1udm3596.1.2 bus2=p1ulv59541.1.2 switch=n enabled=y phases=2 Linecode=1P_UG_AL_1/0_Brenau_0_416_0_2_2_2_2

New Line.l(r:p1udm3596-p1udt983lv) Units=km Length=0.00988032 bus1=p1udt983lv.1.2 bus2=p1udm3596.1.2 switch=n enabled=y phases=2 Linecode=1P_UG_AL_4/0_Sweetbriar_0_416_0_2_2_2_2

New Line.l(r:p1udm5916-p1ulv1684) Units=km Length=0.0122537 bus1=p1udm5916.1.2 bus2=p1ulv1684.1.2 switch=n enabled=y phases=2 Linecode=1P_UG_AL_1/0_Brenau_0_416_0_2_2_2_2

New Line.l(r:p1udm5918-p1ulv21863) Units=km Length=0.0196164 bus1=p1udm5918.1.2 bus2=p1ulv21863.1.2 switch=n enabled=y phases=2 Linecode=1P_UG_AL_1/0_Brenau_0_416_0_2_2_2_2

New Line.l(r:p1udm5916-p1udm5918) Units=km Length=0.042493 bus1=p1udm5916.1.2 bus2=p1udm5918.1.2 switch=n enabled=y phases=2 Linecode=1P_UG_AL_1/0_Brenau_0_416_0_2_2_2_2

New Line.l(r:p1udm5916-p1udt1615lv) Units=km Length=0.008921010000000002 bus1=p1udt1615lv.1.2 bus2=p1udm5916.1.2 switch=n enabled=y phases=2 Linecode=1P_UG_AL_4/0_Sweetbriar_0_416_0_2_2_2_2

New Line.l(r:p1udm5917-p1ulv12341) Units=km Length=0.0124262 bus1=p1udm5917.1.2 bus2=p1ulv12341.1.2 switch=n enabled=y phases=2 Linecode=1P_UG_AL_1/0_Brenau_0_416_0_2_2_2_2

New Line.l(r:p1udm5917-p1udt1615lv) Units=km Length=0.0077056 bus1=p1udt1615lv.1.2 bus2=p1udm5917.1.2 switch=n enabled=y phases=2 Linecode=1P_UG_AL_1/0_Brenau_0_416_0_2_2_2_2

New Line.l(r:p1udt1624lv-p1ulv1693) Units=km Length=0.0509319 bus1=p1udt1624lv.1.2 bus2=p1ulv1693.1.2 switch=n enabled=y phases=2 Linecode=1P_OH_AL_4/0_Zuzara_0_416_0_2_2_2_2

New Line.l(r:p1udt1624lv-p1ulv25692) Units=km Length=0.0449363 bus1=p1udt1624lv.1.2 bus2=p1ulv25692.1.2 switch=n enabled=y phases=2 Linecode=1P_OH_AL_4/0_Zuzara_0_416_0_2_2_2_2

New Line.l(r:p1udt1624lv-p1ulv55901) Units=km Length=0.00539609 bus1=p1udt1624lv.1.2 bus2=p1ulv55901.1.2 switch=n enabled=y phases=2 Linecode=1P_OH_AL_2/0_Rucina_0_416_0_2_2_2_2

New Line.l(r:p1udt1628lv-p1ulv1697) Units=km Length=0.0236481 bus1=p1udt1628lv.1.2 bus2=p1ulv1697.1.2 switch=n enabled=y phases=2 Linecode=1P_UG_AL_1/0_Brenau_0_416_0_2_2_2_2

New Line.l(r:p1udm5962-p1ulv8615) Units=km Length=0.0211907 bus1=p1udm5962.1.2 bus2=p1ulv8615.1.2 switch=n enabled=y phases=2 Linecode=1P_UG_AL_1/0_Brenau_0_416_0_2_2_2_2

New Line.l(r:p1udm5962-p1udt1628lv) Units=km Length=0.00995865 bus1=p1udt1628lv.1.2 bus2=p1udm5962.1.2 switch=n enabled=y phases=2 Linecode=1P_UG_AL_1/0_Brenau_0_416_0_2_2_2_2

New Line.l(r:p1udt1631lv-p1ulv1700) Units=km Length=0.0121084 bus1=p1udt1631lv.1.2 bus2=p1ulv1700.1.2 switch=n enabled=y phases=2 Linecode=1P_OH_AL_2/0_Rucina_0_416_0_2_2_2_2

New Line.l(r:p1udt1689lv-p1ulv1766) Units=km Length=0.0037194900000000006 bus1=p1udt1689lv.1.2 bus2=p1ulv1766.1.2 switch=n enabled=y phases=2 Linecode=1P_OH_AL_4_Periwinkle_0_416_0_2_2_2_2

New Line.l(r:p1udt2157lv-p1ulv51482) Units=km Length=0.0104024 bus1=p1udt2157lv.1.2 bus2=p1ulv51482.1.2 switch=n enabled=y phases=2 Linecode=1P_OH_AL_2/0_Rucina_0_416_0_2_2_2_2

New Line.l(r:p1udm7831-p1ulv2276) Units=km Length=0.00949207 bus1=p1udm7831.1.2 bus2=p1ulv2276.1.2 switch=n enabled=y phases=2 Linecode=1P_OH_AL_2/0_Rucina_0_416_0_2_2_2_2

New Line.l(r:p1udm7831-p1udt2157lv) Units=km Length=0.0163674 bus1=p1udt2157lv.1.2 bus2=p1udm7831.1.2 switch=n enabled=y phases=2 Linecode=1P_OH_AL_2/0_Rucina_0_416_0_2_2_2_2

New Line.l(r:p1udm7923-p1ulv2305) Units=km Length=0.026681100000000003 bus1=p1udm7923.1.2 bus2=p1ulv2305.1.2 switch=n enabled=y phases=2 Linecode=1P_UG_AL_1/0_Brenau_0_416_0_2_2_2_2

New Line.l(r:p1udm7926-p1ulv56523) Units=km Length=0.0225338 bus1=p1udm7926.1.2 bus2=p1ulv56523.1.2 switch=n enabled=y phases=2 Linecode=1P_UG_AL_1/0_Brenau_0_416_0_2_2_2_2

New Line.l(r:p1udm7923-p1udm7926) Units=km Length=0.009804 bus1=p1udm7923.1.2 bus2=p1udm7926.1.2 switch=n enabled=y phases=2 Linecode=1P_UG_AL_1/0_Brenau_0_416_0_2_2_2_2

New Line.l(r:p1udm7923-p1udt2184lv) Units=km Length=0.009804 bus1=p1udt2184lv.1.2 bus2=p1udm7923.1.2 switch=n enabled=y phases=2 Linecode=1P_UG_AL_4/0_Sweetbriar_0_416_0_2_2_2_2

New Line.l(r:p1udm7924-p1ulv3582) Units=km Length=0.0188606 bus1=p1udm7924.1.2 bus2=p1ulv3582.1.2 switch=n enabled=y phases=2 Linecode=1P_UG_AL_1/0_Brenau_0_416_0_2_2_2_2

New Line.l(r:p1udm7924-p1ulv24429) Units=km Length=0.017736700000000005 bus1=p1udm7924.1.2 bus2=p1ulv24429.1.2 switch=n enabled=y phases=2 Linecode=1P_UG_AL_1/0_Brenau_0_416_0_2_2_2_2

New Line.l(r:p1udm7924-p1udt2184lv) Units=km Length=0.00980372 bus1=p1udt2184lv.1.2 bus2=p1udm7924.1.2 switch=n enabled=y phases=2 Linecode=1P_UG_AL_4/0_Sweetbriar_0_416_0_2_2_2_2

New Line.l(r:p1udt2185lv-p1ulv55903) Units=km Length=0.0527323 bus1=p1udt2185lv.1.2 bus2=p1ulv55903.1.2 switch=n enabled=y phases=2 Linecode=1P_UG_AL_1/0_Brenau_0_416_0_2_2_2_2

New Line.l(r:p1udt2185lv-p1ulv58923) Units=km Length=0.0184477 bus1=p1udt2185lv.1.2 bus2=p1ulv58923.1.2 switch=n enabled=y phases=2 Linecode=1P_UG_AL_1/0_Brenau_0_416_0_2_2_2_2

New Line.l(r:p1udm7927-p1ulv2306) Units=km Length=0.0490054 bus1=p1udm7927.1.2 bus2=p1ulv2306.1.2 switch=n enabled=y phases=2 Linecode=1P_UG_AL_1/0_Brenau_0_416_0_2_2_2_2

New Line.l(r:p1udm7927-p1udt2185lv) Units=km Length=0.029570000000000003 bus1=p1udt2185lv.1.2 bus2=p1udm7927.1.2 switch=n enabled=y phases=2 Linecode=1P_UG_AL_1/0_Brenau_0_416_0_2_2_2_2

New Line.l(r:p1udm7928-p1ulv28879) Units=km Length=0.020052 bus1=p1udm7928.1.2 bus2=p1ulv28879.1.2 switch=n enabled=y phases=2 Linecode=1P_UG_AL_1/0_Brenau_0_416_0_2_2_2_2

New Line.l(r:p1udm7928-p1udt2185lv) Units=km Length=0.0098553 bus1=p1udt2185lv.1.2 bus2=p1udm7928.1.2 switch=n enabled=y phases=2 Linecode=1P_UG_AL_1/0_Brenau_0_416_0_2_2_2_2

New Line.l(r:p1udt2195lv-p1ulv7383) Units=km Length=0.0145014 bus1=p1udt2195lv.1.2 bus2=p1ulv7383.1.2 switch=n enabled=y phases=2 Linecode=1P_UG_AL_1/0_Brenau_0_416_0_2_2_2_2

New Line.l(r:p1udm7964-p1ulv14837) Units=km Length=0.0126144 bus1=p1udm7964.1.2 bus2=p1ulv14837.1.2 switch=n enabled=y phases=2 Linecode=1P_UG_AL_1/0_Brenau_0_416_0_2_2_2_2

New Line.l(r:p1udm7962-p1ulv2316) Units=km Length=0.0155059 bus1=p1udm7962.1.2 bus2=p1ulv2316.1.2 switch=n enabled=y phases=2 Linecode=1P_UG_AL_4/0_Sweetbriar_0_416_0_2_2_2_2

New Line.l(r:p1udm7962-p1udm7964) Units=km Length=0.00979829 bus1=p1udm7964.1.2 bus2=p1udm7962.1.2 switch=n enabled=y phases=2 Linecode=1P_UG_AL_4/0_Sweetbriar_0_416_0_2_2_2_2

New Line.l(r:p1udm7964-p1udt2195lv) Units=km Length=0.0196007 bus1=p1udt2195lv.1.2 bus2=p1udm7964.1.2 switch=n enabled=y phases=2 Linecode=1P_UG_AL_4/0_Sweetbriar_0_416_0_2_2_2_2

New Line.l(r:p1udm7965-p1ulv47832) Units=km Length=0.012090700000000001 bus1=p1udm7965.1.2 bus2=p1ulv47832.1.2 switch=n enabled=y phases=2 Linecode=1P_UG_AL_1/0_Brenau_0_416_0_2_2_2_2

New Line.l(r:p1udm7966-p1ulv62022) Units=km Length=0.0159 bus1=p1udm7966.1.2 bus2=p1ulv62022.1.2 switch=n enabled=y phases=2 Linecode=1P_UG_AL_1/0_Brenau_0_416_0_2_2_2_2

New Line.l(r:p1udm7965-p1udm7966) Units=km Length=0.0098071 bus1=p1udm7965.1.2 bus2=p1udm7966.1.2 switch=n enabled=y phases=2 Linecode=1P_UG_AL_1/0_Brenau_0_416_0_2_2_2_2

New Line.l(r:p1udm7965-p1udt2195lv) Units=km Length=0.00979829 bus1=p1udt2195lv.1.2 bus2=p1udm7965.1.2 switch=n enabled=y phases=2 Linecode=1P_UG_AL_4/0_Sweetbriar_0_416_0_2_2_2_2

New Line.l(r:p1udt2743lv-p1ulv2922) Units=km Length=0.015353 bus1=p1udt2743lv.1.2 bus2=p1ulv2922.1.2 switch=n enabled=y phases=2 Linecode=1P_UG_AL_2/0_Converse_0_416_0_2_2_2_2

New Line.l(r:p1udm9881-p1ulv2949) Units=km Length=0.0169708 bus1=p1udm9881.1.2 bus2=p1ulv2949.1.2 switch=n enabled=y phases=2 Linecode=1P_OH_AL_2/0_Rucina_0_416_0_2_2_2_2

New Line.l(r:p1udm9881-p1udt2767lv) Units=km Length=0.0182692 bus1=p1udt2767lv.1.2 bus2=p1udm9881.1.2 switch=n enabled=y phases=2 Linecode=1P_OH_AL_2/0_Rucina_0_416_0_2_2_2_2

New Line.l(r:p1udm9882-p1ulv51515) Units=km Length=0.0306984 bus1=p1udm9882.1.2 bus2=p1ulv51515.1.2 switch=n enabled=y phases=2 Linecode=1P_OH_AL_4/0_Zuzara_0_416_0_2_2_2_2

New Line.l(r:p1udm9882-p1udt2767lv) Units=km Length=0.0104002 bus1=p1udt2767lv.1.2 bus2=p1udm9882.1.2 switch=n enabled=y phases=2 Linecode=1P_OH_AL_2/0_Rucina_0_416_0_2_2_2_2

New Line.l(r:p1udt2768lv-p1ulv2950) Units=km Length=0.0278978 bus1=p1udt2768lv.1.2 bus2=p1ulv2950.1.2 switch=n enabled=y phases=2 Linecode=1P_OH_AL_4/0_Zuzara_0_416_0_2_2_2_2

New Line.l(r:p1udt2777lv-p1ulv31371) Units=km Length=0.0159171 bus1=p1udt2777lv.1.2 bus2=p1ulv31371.1.2 switch=n enabled=y phases=2 Linecode=1P_UG_AL_1/0_Brenau_0_416_0_2_2_2_2

New Line.l(r:p1udt2777lv-p1ulv37753) Units=km Length=0.0151661 bus1=p1udt2777lv.1.2 bus2=p1ulv37753.1.2 switch=n enabled=y phases=2 Linecode=1P_UG_AL_1/0_Brenau_0_416_0_2_2_2_2

New Line.l(r:p1udm9903-p1ulv2959) Units=km Length=0.0160361 bus1=p1udm9903.1.2 bus2=p1ulv2959.1.2 switch=n enabled=y phases=2 Linecode=1P_UG_AL_1/0_Brenau_0_416_0_2_2_2_2

New Line.l(r:p1udm9903-p1udt2777lv) Units=km Length=0.0098851 bus1=p1udt2777lv.1.2 bus2=p1udm9903.1.2 switch=n enabled=y phases=2 Linecode=1P_UG_AL_1/0_Brenau_0_416_0_2_2_2_2

New Line.l(r:p1udm9906-p1ulv60151) Units=km Length=0.015539000000000002 bus1=p1udm9906.1.2 bus2=p1ulv60151.1.2 switch=n enabled=y phases=2 Linecode=1P_UG_AL_1/0_Brenau_0_416_0_2_2_2_2

New Line.l(r:p1udm9906-p1udt2777lv) Units=km Length=0.00987633 bus1=p1udt2777lv.1.2 bus2=p1udm9906.1.2 switch=n enabled=y phases=2 Linecode=1P_UG_AL_1/0_Brenau_0_416_0_2_2_2_2

New Line.l(r:p1udt3330lv-p1ulv3574) Units=km Length=0.0126956 bus1=p1udt3330lv.1.2 bus2=p1ulv3574.1.2 switch=n enabled=y phases=2 Linecode=1P_OH_AL_2/0_Rucina_0_416_0_2_2_2_2

New Line.l(r:p1udt3337lv-p1ulv3581) Units=km Length=0.00669347 bus1=p1udt3337lv.1.2 bus2=p1ulv3581.1.2 switch=n enabled=y phases=2 Linecode=1P_OH_AL_2/0_Rucina_0_416_0_2_2_2_2

New Line.l(r:p1udm11800-p1ulv28876) Units=km Length=0.00644634 bus1=p1udm11800.1.2 bus2=p1ulv28876.1.2 switch=n enabled=y phases=2 Linecode=1P_OH_AL_2/0_Rucina_0_416_0_2_2_2_2

New Line.l(r:p1udm11800-p1udt3337lv) Units=km Length=0.01435 bus1=p1udt3337lv.1.2 bus2=p1udm11800.1.2 switch=n enabled=y phases=2 Linecode=1P_OH_AL_2/0_Rucina_0_416_0_2_2_2_2

New Line.l(r:p1udm11801-p1ulv46602) Units=km Length=0.00673502 bus1=p1udm11801.1.2 bus2=p1ulv46602.1.2 switch=n enabled=y phases=2 Linecode=1P_OH_AL_2/0_Rucina_0_416_0_2_2_2_2

New Line.l(r:p1udm11801-p1udt3337lv) Units=km Length=0.0334989 bus1=p1udt3337lv.1.2 bus2=p1udm11801.1.2 switch=n enabled=y phases=2 Linecode=1P_OH_AL_4/0_Zuzara_0_416_0_2_2_2_2

New Line.l(r:p1udt3338lv-p1ulv3583) Units=km Length=0.0553223 bus1=p1udt3338lv.1.2 bus2=p1ulv3583.1.2 switch=n enabled=y phases=2 Linecode=1P_UG_AL_1/0_Brenau_0_416_0_2_2_2_2

New Line.l(r:p1udt3338lv-p1ulv18666) Units=km Length=0.0365061 bus1=p1udt3338lv.1.2 bus2=p1ulv18666.1.2 switch=n enabled=y phases=2 Linecode=1P_UG_AL_1/0_Brenau_0_416_0_2_2_2_2

New Line.l(r:p1udt3338lv-p1ulv35223) Units=km Length=0.0633668 bus1=p1udt3338lv.1.2 bus2=p1ulv35223.1.2 switch=n enabled=y phases=2 Linecode=1P_UG_AL_1/0_Brenau_0_416_0_2_2_2_2

New Line.l(r:p1udt3338lv-p1ulv39011) Units=km Length=0.0597172 bus1=p1udt3338lv.1.2 bus2=p1ulv39011.1.2 switch=n enabled=y phases=2 Linecode=1P_UG_AL_1/0_Brenau_0_416_0_2_2_2_2

New Line.l(r:p1udt3351lv-p1ulv48450) Units=km Length=0.0135907 bus1=p1udt3351lv.1.2 bus2=p1ulv48450.1.2 switch=n enabled=y phases=2 Linecode=1P_UG_AL_1/0_Brenau_0_416_0_2_2_2_2

New Line.l(r:p1udm11843-p1ulv3598) Units=km Length=0.015482 bus1=p1udm11843.1.2 bus2=p1ulv3598.1.2 switch=n enabled=y phases=2 Linecode=1P_UG_AL_4/0_Sweetbriar_0_416_0_2_2_2_2

New Line.l(r:p1udm11843-p1udt3351lv) Units=km Length=0.00980531 bus1=p1udt3351lv.1.2 bus2=p1udm11843.1.2 switch=n enabled=y phases=2 Linecode=1P_UG_AL_4/0_Sweetbriar_0_416_0_2_2_2_2

New Line.l(r:p1udt3852lv-p1ulv40886) Units=km Length=0.014919 bus1=p1udt3852lv.1.2 bus2=p1ulv40886.1.2 switch=n enabled=y phases=2 Linecode=1P_UG_AL_2/0_Converse_0_416_0_2_2_2_2

New Line.l(r:p1udm13582-p1ulv4196) Units=km Length=0.0172204 bus1=p1udm13582.1.2 bus2=p1ulv4196.1.2 switch=n enabled=y phases=2 Linecode=1P_UG_AL_1/0_Brenau_0_416_0_2_2_2_2

New Line.l(r:p1udm13582-p1udt3852lv) Units=km Length=0.00873969 bus1=p1udt3852lv.1.2 bus2=p1udm13582.1.2 switch=n enabled=y phases=2 Linecode=1P_UG_AL_1/0_Brenau_0_416_0_2_2_2_2

New Line.l(r:p1udm13584-p1ulv64569) Units=km Length=0.0176469 bus1=p1udm13584.1.2 bus2=p1ulv64569.1.2 switch=n enabled=y phases=2 Linecode=1P_UG_AL_1/0_Brenau_0_416_0_2_2_2_2

New Line.l(r:p1udm13584-p1udt3852lv) Units=km Length=0.00875126 bus1=p1udt3852lv.1.2 bus2=p1udm13584.1.2 switch=n enabled=y phases=2 Linecode=1P_UG_AL_1/0_Brenau_0_416_0_2_2_2_2

New Line.l(r:p1udt3853lv-p1ulv50920) Units=km Length=0.0189268 bus1=p1udt3853lv.1.2 bus2=p1ulv50920.1.2 switch=n enabled=y phases=2 Linecode=1P_OH_AL_2/0_Rucina_0_416_0_2_2_2_2

New Line.l(r:p1udt3853lv-p1ulv55317) Units=km Length=0.017536 bus1=p1udt3853lv.1.2 bus2=p1ulv55317.1.2 switch=n enabled=y phases=2 Linecode=1P_OH_AL_2/0_Rucina_0_416_0_2_2_2_2

New Line.l(r:p1udm13585-p1ulv4198) Units=km Length=0.0113727 bus1=p1udm13585.1.2 bus2=p1ulv4198.1.2 switch=n enabled=y phases=2 Linecode=1P_OH_AL_2/0_Rucina_0_416_0_2_2_2_2

New Line.l(r:p1udm13585-p1ulv46608) Units=km Length=0.0181969 bus1=p1udm13585.1.2 bus2=p1ulv46608.1.2 switch=n enabled=y phases=2 Linecode=1P_OH_AL_2/0_Rucina_0_416_0_2_2_2_2

New Line.l(r:p1udm13585-p1udt3853lv) Units=km Length=0.0185938 bus1=p1udt3853lv.1.2 bus2=p1udm13585.1.2 switch=n enabled=y phases=2 Linecode=1P_OH_AL_2/0_Rucina_0_416_0_2_2_2_2

New Line.l(r:p1udm13586-p1ulv30749) Units=km Length=0.0123902 bus1=p1udm13586.1.2 bus2=p1ulv30749.1.2 switch=n enabled=y phases=2 Linecode=1P_OH_AL_2/0_Rucina_0_416_0_2_2_2_2

New Line.l(r:p1udm13586-p1ulv43408) Units=km Length=0.0204152 bus1=p1udm13586.1.2 bus2=p1ulv43408.1.2 switch=n enabled=y phases=2 Linecode=1P_OH_AL_2/0_Rucina_0_416_0_2_2_2_2

New Line.l(r:p1udm13586-p1udt3853lv) Units=km Length=0.0185859 bus1=p1udt3853lv.1.2 bus2=p1udm13586.1.2 switch=n enabled=y phases=2 Linecode=1P_OH_AL_2/0_Rucina_0_416_0_2_2_2_2

New Line.l(r:p1udm15372-p1ulv4817) Units=km Length=0.0581875 bus1=p1udm15372.1.2 bus2=p1ulv4817.1.2 switch=n enabled=y phases=2 Linecode=1P_UG_AL_4/0_Sweetbriar_0_416_0_2_2_2_2

New Line.l(r:p1udm15372-p1ulv40281) Units=km Length=0.0212554 bus1=p1udm15372.1.2 bus2=p1ulv40281.1.2 switch=n enabled=y phases=2 Linecode=1P_UG_AL_2/0_Converse_0_416_0_2_2_2_2

New Line.l(r:p1udm15374-p1ulv30108) Units=km Length=0.0226679 bus1=p1udm15374.1.2 bus2=p1ulv30108.1.2 switch=n enabled=y phases=2 Linecode=1P_UG_AL_1/0_Brenau_0_416_0_2_2_2_2

New Line.l(r:p1udm15372-p1udm15374) Units=km Length=0.0197106 bus1=p1udm15372.1.2 bus2=p1udm15374.1.2 switch=n enabled=y phases=2 Linecode=1P_UG_AL_1/0_Brenau_0_416_0_2_2_2_2

New Line.l(r:p1udm15372-p1udt4364lv) Units=km Length=0.0098553 bus1=p1udt4364lv.1.2 bus2=p1udm15372.1.2 switch=n enabled=y phases=2 Linecode=1P_UG_AL_4/0_Sweetbriar_0_416_0_2_2_2_2

New Line.l(r:p1udm15373-p1ulv28878) Units=km Length=0.0212672 bus1=p1udm15373.1.2 bus2=p1ulv28878.1.2 switch=n enabled=y phases=2 Linecode=1P_UG_AL_1/0_Brenau_0_416_0_2_2_2_2

New Line.l(r:p1udm15373-p1udt4364lv) Units=km Length=0.0295659 bus1=p1udt4364lv.1.2 bus2=p1udm15373.1.2 switch=n enabled=y phases=2 Linecode=1P_UG_AL_1/0_Brenau_0_416_0_2_2_2_2

New Line.l(r:p1udt4369lv-p1ulv41506) Units=km Length=0.00257946 bus1=p1udt4369lv.1.2 bus2=p1ulv41506.1.2 switch=n enabled=y phases=2 Linecode=1P_OH_AL_4_Periwinkle_0_416_0_2_2_2_2

New Line.l(r:p1udm15389-p1ulv4829) Units=km Length=0.0018859700000000003 bus1=p1udm15389.1.2 bus2=p1ulv4829.1.2 switch=n enabled=y phases=2 Linecode=1P_OH_AL_4_Periwinkle_0_416_0_2_2_2_2

New Line.l(r:p1udm15389-p1udt4369lv) Units=km Length=0.0197979 bus1=p1udt4369lv.1.2 bus2=p1udm15389.1.2 switch=n enabled=y phases=2 Linecode=1P_OH_AL_2/0_Rucina_0_416_0_2_2_2_2

New Line.l(r:p1udm15391-p1ulv47835) Units=km Length=0.0036440100000000005 bus1=p1udm15391.1.2 bus2=p1ulv47835.1.2 switch=n enabled=y phases=2 Linecode=1P_OH_AL_4_Periwinkle_0_416_0_2_2_2_2

New Line.l(r:p1udm15391-p1udt4369lv) Units=km Length=0.0095793 bus1=p1udt4369lv.1.2 bus2=p1udm15391.1.2 switch=n enabled=y phases=2 Linecode=1P_OH_AL_2/0_Rucina_0_416_0_2_2_2_2

New Line.l(r:p1udt4810lv-p1ulv5391) Units=km Length=0.00471666 bus1=p1udt4810lv.1.2 bus2=p1ulv5391.1.2 switch=n enabled=y phases=2 Linecode=1P_OH_AL_2/0_Rucina_0_416_0_2_2_2_2

New Line.l(r:p1udm16836-p1ulv58296) Units=km Length=0.0121103 bus1=p1udm16836.1.2 bus2=p1ulv58296.1.2 switch=n enabled=y phases=2 Linecode=1P_OH_AL_2/0_Rucina_0_416_0_2_2_2_2

New Line.l(r:p1udm16836-p1udt4810lv) Units=km Length=0.0112472 bus1=p1udt4810lv.1.2 bus2=p1udm16836.1.2 switch=n enabled=y phases=2 Linecode=1P_OH_AL_2/0_Rucina_0_416_0_2_2_2_2

New Line.l(r:p1udt4825lv-p1ulv35216) Units=km Length=0.0155308 bus1=p1udt4825lv.1.2 bus2=p1ulv35216.1.2 switch=n enabled=y phases=2 Linecode=1P_UG_AL_1/0_Brenau_0_416_0_2_2_2_2

New Line.l(r:p1udm16881-p1ulv5408) Units=km Length=0.016890900000000004 bus1=p1udm16881.1.2 bus2=p1ulv5408.1.2 switch=n enabled=y phases=2 Linecode=1P_OH_AL_2/0_Rucina_0_416_0_2_2_2_2

New Line.l(r:p1udm16881-p1udt4825lv) Units=km Length=0.0236061 bus1=p1udt4825lv.1.2 bus2=p1udm16881.1.2 switch=n enabled=y phases=2 Linecode=1P_OH_AL_2/0_Rucina_0_416_0_2_2_2_2

New Line.l(r:p1udm16882-p1ulv6084) Units=km Length=0.0150501 bus1=p1udm16882.1.2 bus2=p1ulv6084.1.2 switch=n enabled=y phases=2 Linecode=1P_UG_AL_1/0_Brenau_0_416_0_2_2_2_2

New Line.l(r:p1udm16882-p1ulv57144) Units=km Length=0.0165447 bus1=p1udm16882.1.2 bus2=p1ulv57144.1.2 switch=n enabled=y phases=2 Linecode=1P_UG_AL_1/0_Brenau_0_416_0_2_2_2_2

New Line.l(r:p1udm16883-p1ulv18026) Units=km Length=0.0146923 bus1=p1udm16883.1.2 bus2=p1ulv18026.1.2 switch=n enabled=y phases=2 Linecode=1P_UG_AL_1/0_Brenau_0_416_0_2_2_2_2

New Line.l(r:p1udm16882-p1udm16883) Units=km Length=0.0098851 bus1=p1udm16882.1.2 bus2=p1udm16883.1.2 switch=n enabled=y phases=2 Linecode=1P_UG_AL_1/0_Brenau_0_416_0_2_2_2_2

New Line.l(r:p1udm16882-p1udt4825lv) Units=km Length=0.00987633 bus1=p1udt4825lv.1.2 bus2=p1udm16882.1.2 switch=n enabled=y phases=2 Linecode=1P_UG_AL_4/0_Sweetbriar_0_416_0_2_2_2_2

New Line.l(r:p1udt4828lv-p1ulv5412) Units=km Length=0.0158538 bus1=p1udt4828lv.1.2 bus2=p1ulv5412.1.2 switch=n enabled=y phases=2 Linecode=1P_UG_AL_1/0_Brenau_0_416_0_2_2_2_2

New Line.l(r:p1udt4828lv-p1ulv41490) Units=km Length=0.0127733 bus1=p1udt4828lv.1.2 bus2=p1ulv41490.1.2 switch=n enabled=y phases=2 Linecode=1P_UG_AL_1/0_Brenau_0_416_0_2_2_2_2

New Line.l(r:p1udm16895-p1ulv49632) Units=km Length=0.0156846 bus1=p1udm16895.1.2 bus2=p1ulv49632.1.2 switch=n enabled=y phases=2 Linecode=1P_UG_AL_1/0_Brenau_0_416_0_2_2_2_2

New Line.l(r:p1udm16895-p1udt4828lv) Units=km Length=0.0194377 bus1=p1udt4828lv.1.2 bus2=p1udm16895.1.2 switch=n enabled=y phases=2 Linecode=1P_UG_AL_1/0_Brenau_0_416_0_2_2_2_2

New Line.l(r:p1udm16896-p1ulv55297) Units=km Length=0.0157646 bus1=p1udm16896.1.2 bus2=p1ulv55297.1.2 switch=n enabled=y phases=2 Linecode=1P_UG_AL_4/0_Sweetbriar_0_416_0_2_2_2_2

New Line.l(r:p1udm16896-p1udt4828lv) Units=km Length=0.0194462 bus1=p1udt4828lv.1.2 bus2=p1udm16896.1.2 switch=n enabled=y phases=2 Linecode=1P_UG_AL_4/0_Sweetbriar_0_416_0_2_2_2_2

New Line.l(r:p1udt4834lv-p1ulv5418) Units=km Length=0.0200681 bus1=p1udt4834lv.1.2 bus2=p1ulv5418.1.2 switch=n enabled=y phases=2 Linecode=1P_OH_AL_2/0_Rucina_0_416_0_2_2_2_2

New Line.l(r:p1udt4834lv-p1ulv25049) Units=km Length=0.0219763 bus1=p1udt4834lv.1.2 bus2=p1ulv25049.1.2 switch=n enabled=y phases=2 Linecode=1P_OH_AL_2/0_Rucina_0_416_0_2_2_2_2

New Line.l(r:p1udm16915-p1ulv49645) Units=km Length=0.0383016 bus1=p1udm16915.1.2 bus2=p1ulv49645.1.2 switch=n enabled=y phases=2 Linecode=1P_OH_AL_4/0_Zuzara_0_416_0_2_2_2_2
