New Line.l(r:p1rdt59lv-p1rlv10750) Units=km Length=0.0102199 bus1=p1rdt59lv.1.2 bus2=p1rlv10750.1.2 switch=n enabled=y phases=2 Linecode=1P_OH_AL_2/0_Rucina_0_416_0_2_2_2_2_2_2_2_2_2_2_2_2_2_2_2_2_2_2_2_2_2_2_2_2_2_2_2_2_2

New Line.l(r:p1rdm142-p1rlv60) Units=km Length=0.0103437 bus1=p1rdm142.1.2 bus2=p1rlv60.1.2 switch=n enabled=y phases=2 Linecode=1P_OH_AL_2/0_Rucina_0_416_0_2_2_2_2_2_2_2_2_2_2_2_2_2_2_2_2_2_2_2_2_2_2_2_2_2_2_2_2_2

New Line.l(r:p1rdm142-p1rdt59lv) Units=km Length=0.0187706 bus1=p1rdt59lv.1.2 bus2=p1rdm142.1.2 switch=n enabled=y phases=2 Linecode=1P_OH_AL_2/0_Rucina_0_416_0_2_2_2_2_2_2_2_2_2_2_2_2_2_2_2_2_2_2_2_2_2_2_2_2_2_2_2_2_2

New Line.l(r:p1rdt60lv-p1rlv61) Units=km Length=0.013259 bus1=p1rdt60lv.1.2 bus2=p1rlv61.1.2 switch=n enabled=y phases=2 Linecode=1P_UG_AL_4/0_Sweetbriar_0_416_0_2_2_2_2_2_2_2_2_2_2_2_2_2_2_2_2_2_2_2_2_2_2_2_2_2_2_2_2_2

New Line.l(r:p1rdt60lv-p1rlv10082) Units=km Length=0.0125955 bus1=p1rdt60lv.1.2 bus2=p1rlv10082.1.2 switch=n enabled=y phases=2 Linecode=1P_UG_AL_1/0_Brenau_0_416_0_2_2_2_2_2_2_2_2_2_2_2_2_2_2_2_2_2_2_2_2_2_2_2_2_2_2_2_2_2

New Line.l(r:p1rdt61lv-p1rlv3003) Units=km Length=0.0128224 bus1=p1rdt61lv.1.2 bus2=p1rlv3003.1.2 switch=n enabled=y phases=2 Linecode=1P_UG_AL_1/0_Brenau_0_416_0_2_2_2_2_2_2_2_2_2_2_2_2_2_2_2_2_2_2_2_2_2_2_2_2_2_2_2_2_2

New Line.l(r:p1rdm146-p1rlv62) Units=km Length=0.0127974 bus1=p1rdm146.1.2 bus2=p1rlv62.1.2 switch=n enabled=y phases=2 Linecode=1P_UG_AL_4/0_Sweetbriar_0_416_0_2_2_2_2_2_2_2_2_2_2_2_2_2_2_2_2_2_2_2_2_2_2_2_2_2_2_2_2_2

New Line.l(r:p1rdm146-p1rdt61lv) Units=km Length=0.00990883 bus1=p1rdt61lv.1.2 bus2=p1rdm146.1.2 switch=n enabled=y phases=2 Linecode=1P_UG_AL_4/0_Sweetbriar_0_416_0_2_2_2_2_2_2_2_2_2_2_2_2_2_2_2_2_2_2_2_2_2_2_2_2_2_2_2_2_2

New Line.l(r:p1rdm148-p1rlv7826) Units=km Length=0.0132639 bus1=p1rdm148.1.2 bus2=p1rlv7826.1.2 switch=n enabled=y phases=2 Linecode=1P_UG_AL_1/0_Brenau_0_416_0_2_2_2_2_2_2_2_2_2_2_2_2_2_2_2_2_2_2_2_2_2_2_2_2_2_2_2_2_2

New Line.l(r:p1rdm148-p1rdt61lv) Units=km Length=0.00991767 bus1=p1rdt61lv.1.2 bus2=p1rdm148.1.2 switch=n enabled=y phases=2 Linecode=1P_UG_AL_1/0_Brenau_0_416_0_2_2_2_2_2_2_2_2_2_2_2_2_2_2_2_2_2_2_2_2_2_2_2_2_2_2_2_2_2

New Line.l(r:p1rdt62lv-p1rlv63) Units=km Length=0.086008 bus1=p1rdt62lv.1.2 bus2=p1rlv63.1.2 switch=n enabled=y phases=2 Linecode=1P_OH_AL_4/0_Zuzara_0_416_0_2_2_2_2_2_2_2_2_2_2_2_2_2_2_2_2_2_2_2_2_2_2_2_2_2_2_2_2_2

New Line.l(r:p1rdt62lv-p1rlv5569) Units=km Length=0.030103400000000002 bus1=p1rdt62lv.1.2 bus2=p1rlv5569.1.2 switch=n enabled=y phases=2 Linecode=1P_OH_AL_4/0_Zuzara_0_416_0_2_2_2_2_2_2_2_2_2_2_2_2_2_2_2_2_2_2_2_2_2_2_2_2_2_2_2_2_2

New Line.l(r:p1rdt74lv-p1rlv76) Units=km Length=0.0896209 bus1=p1rdt74lv.1.2 bus2=p1rlv76.1.2 switch=n enabled=y phases=2 Linecode=1P_OH_AL_4/0_Zuzara_0_416_0_2_2_2_2_2_2_2_2_2_2_2_2_2_2_2_2_2_2_2_2_2_2_2_2_2_2_2_2_2

New Line.l(r:p1rdt185lv-p1rlv192) Units=km Length=0.001 bus1=p1rdt185lv.1.2 bus2=p1rlv192.1.2 switch=n enabled=y phases=2 Linecode=1P_OH_AL_4_Periwinkle_0_416_0_2_2_2_2_2_2_2_2_2_2_2_2_2_2_2_2_2_2_2_2_2_2_2_2_2_2_2_2_2

New Line.l(r:p1rdt186lv-p1rlv193) Units=km Length=0.018813 bus1=p1rdt186lv.1.2 bus2=p1rlv193.1.2 switch=n enabled=y phases=2 Linecode=1P_OH_AL_2/0_Rucina_0_416_0_2_2_2_2_2_2_2_2_2_2_2_2_2_2_2_2_2_2_2_2_2_2_2_2_2_2_2_2_2

New Line.l(r:p1rdt191lv-p1rlv198) Units=km Length=0.0614412 bus1=p1rdt191lv.1.2 bus2=p1rlv198.1.2 switch=n enabled=y phases=2 Linecode=1P_OH_AL_4/0_Zuzara_0_416_0_2_2_2_2_2_2_2_2_2_2_2_2_2_2_2_2_2_2_2_2_2_2_2_2_2_2_2_2_2

New Line.l(r:p1rdt191lv-p1rlv12428) Units=km Length=0.12261800000000002 bus1=p1rdt191lv.1.2 bus2=p1rlv12428.1.2 switch=n enabled=y phases=2 Linecode=1P_OH_AL_4/0_Zuzara_0_416_0_2_2_2_2_2_2_2_2_2_2_2_2_2_2_2_2_2_2_2_2_2_2_2_2_2_2_2_2_2

New Line.l(r:p1rdt323lv-p1rlv332) Units=km Length=0.001 bus1=p1rdt323lv.1.2 bus2=p1rlv332.1.2 switch=n enabled=y phases=2 Linecode=1P_OH_AL_4_Periwinkle_0_416_0_2_2_2_2_2_2_2_2_2_2_2_2_2_2_2_2_2_2_2_2_2_2_2_2_2_2_2_2_2

New Line.l(r:p1rdt324lv-p1rlv333) Units=km Length=0.12052700000000001 bus1=p1rdt324lv.1.2 bus2=p1rlv333.1.2 switch=n enabled=y phases=2 Linecode=1P_OH_AL_4/0_Zuzara_0_416_0_2_2_2_2_2_2_2_2_2_2_2_2_2_2_2_2_2_2_2_2_2_2_2_2_2_2_2_2_2

New Line.l(r:p1rdt324lv-p1rlv5451) Units=km Length=0.102126 bus1=p1rdt324lv.1.2 bus2=p1rlv5451.1.2 switch=n enabled=y phases=2 Linecode=1P_OH_AL_4/0_Zuzara_0_416_0_2_2_2_2_2_2_2_2_2_2_2_2_2_2_2_2_2_2_2_2_2_2_2_2_2_2_2_2_2

New Line.l(r:p1rdt324lv-p1rlv11862) Units=km Length=0.0626205 bus1=p1rdt324lv.1.2 bus2=p1rlv11862.1.2 switch=n enabled=y phases=2 Linecode=1P_OH_AL_4/0_Zuzara_0_416_0_2_2_2_2_2_2_2_2_2_2_2_2_2_2_2_2_2_2_2_2_2_2_2_2_2_2_2_2_2

New Line.l(r:p1rdm768-p1rlv13839) Units=km Length=0.0155128 bus1=p1rdm768.1.2 bus2=p1rlv13839.1.2 switch=n enabled=y phases=2 Linecode=1P_OH_AL_2/0_Rucina_0_416_0_2_2_2_2_2_2_2_2_2_2_2_2_2_2_2_2_2_2_2_2_2_2_2_2_2_2_2_2_2

New Line.l(r:p1rdm768-p1rdt324lv) Units=km Length=0.0191741 bus1=p1rdt324lv.1.2 bus2=p1rdm768.1.2 switch=n enabled=y phases=2 Linecode=1P_OH_AL_2/0_Rucina_0_416_0_2_2_2_2_2_2_2_2_2_2_2_2_2_2_2_2_2_2_2_2_2_2_2_2_2_2_2_2_2

New Line.l(r:p1rdt326lv-p1rlv335) Units=km Length=0.037387 bus1=p1rdt326lv.1.2 bus2=p1rlv335.1.2 switch=n enabled=y phases=2 Linecode=1P_OH_AL_4/0_Zuzara_0_416_0_2_2_2_2_2_2_2_2_2_2_2_2_2_2_2_2_2_2_2_2_2_2_2_2_2_2_2_2_2

New Line.l(r:p1rdt326lv-p1rlv3136) Units=km Length=0.0870056 bus1=p1rdt326lv.1.2 bus2=p1rlv3136.1.2 switch=n enabled=y phases=2 Linecode=1P_OH_AL_4/0_Zuzara_0_416_0_2_2_2_2_2_2_2_2_2_2_2_2_2_2_2_2_2_2_2_2_2_2_2_2_2_2_2_2_2

New Line.l(r:p1rdm773-p1rlv336) Units=km Length=0.0777466 bus1=p1rdm773.1.2 bus2=p1rlv336.1.2 switch=n enabled=y phases=2 Linecode=1P_OH_AL_4/0_Zuzara_0_416_0_2_2_2_2_2_2_2_2_2_2_2_2_2_2_2_2_2_2_2_2_2_2_2_2_2_2_2_2_2

New Line.l(r:p1rdm773-p1rdt327lv) Units=km Length=0.0196759 bus1=p1rdt327lv.1.2 bus2=p1rdm773.1.2 switch=n enabled=y phases=2 Linecode=1P_OH_AL_2/0_Rucina_0_416_0_2_2_2_2_2_2_2_2_2_2_2_2_2_2_2_2_2_2_2_2_2_2_2_2_2_2_2_2_2

New Line.l(r:p1rdm774-p1rlv7695) Units=km Length=0.0561726 bus1=p1rdm774.1.2 bus2=p1rlv7695.1.2 switch=n enabled=y phases=2 Linecode=1P_OH_AL_4/0_Zuzara_0_416_0_2_2_2_2_2_2_2_2_2_2_2_2_2_2_2_2_2_2_2_2_2_2_2_2_2_2_2_2_2

New Line.l(r:p1rdm774-p1rdt327lv) Units=km Length=0.0196847 bus1=p1rdt327lv.1.2 bus2=p1rdm774.1.2 switch=n enabled=y phases=2 Linecode=1P_OH_AL_2/0_Rucina_0_416_0_2_2_2_2_2_2_2_2_2_2_2_2_2_2_2_2_2_2_2_2_2_2_2_2_2_2_2_2_2

New Line.l(r:p1rdt328lv-p1rlv337) Units=km Length=0.04071700000000001 bus1=p1rdt328lv.1.2 bus2=p1rlv337.1.2 switch=n enabled=y phases=2 Linecode=1P_OH_AL_4/0_Zuzara_0_416_0_2_2_2_2_2_2_2_2_2_2_2_2_2_2_2_2_2_2_2_2_2_2_2_2_2_2_2_2_2

New Line.l(r:p1rdt339lv-p1rlv348) Units=km Length=0.001 bus1=p1rdt339lv.1.2 bus2=p1rlv348.1.2 switch=n enabled=y phases=2 Linecode=1P_OH_AL_4_Periwinkle_0_416_0_2_2_2_2_2_2_2_2_2_2_2_2_2_2_2_2_2_2_2_2_2_2_2_2_2_2_2_2_2

New Line.l(r:p1rdt444lv-p1rlv12137) Units=km Length=0.0104612 bus1=p1rdt444lv.1.2 bus2=p1rlv12137.1.2 switch=n enabled=y phases=2 Linecode=1P_OH_AL_2/0_Rucina_0_416_0_2_2_2_2_2_2_2_2_2_2_2_2_2_2_2_2_2_2_2_2_2_2_2_2_2_2_2_2_2

New Line.l(r:p1rdt444lv-p1rlv12938) Units=km Length=0.010331 bus1=p1rdt444lv.1.2 bus2=p1rlv12938.1.2 switch=n enabled=y phases=2 Linecode=1P_OH_AL_2/0_Rucina_0_416_0_2_2_2_2_2_2_2_2_2_2_2_2_2_2_2_2_2_2_2_2_2_2_2_2_2_2_2_2_2

New Line.l(r:p1rdt444lv-p1rlv13054) Units=km Length=0.0153994 bus1=p1rdt444lv.1.2 bus2=p1rlv13054.1.2 switch=n enabled=y phases=2 Linecode=1P_OH_AL_2/0_Rucina_0_416_0_2_2_2_2_2_2_2_2_2_2_2_2_2_2_2_2_2_2_2_2_2_2_2_2_2_2_2_2_2

New Line.l(r:p1rdm1048-p1rlv454) Units=km Length=0.014572400000000001 bus1=p1rdm1048.1.2 bus2=p1rlv454.1.2 switch=n enabled=y phases=2 Linecode=1P_OH_AL_2/0_Rucina_0_416_0_2_2_2_2_2_2_2_2_2_2_2_2_2_2_2_2_2_2_2_2_2_2_2_2_2_2_2_2_2

New Line.l(r:p1rdm1048-p1rlv8457) Units=km Length=0.015280400000000001 bus1=p1rdm1048.1.2 bus2=p1rlv8457.1.2 switch=n enabled=y phases=2 Linecode=1P_OH_AL_2/0_Rucina_0_416_0_2_2_2_2_2_2_2_2_2_2_2_2_2_2_2_2_2_2_2_2_2_2_2_2_2_2_2_2_2

New Line.l(r:p1rdm1048-p1rdt444lv) Units=km Length=0.0187706 bus1=p1rdt444lv.1.2 bus2=p1rdm1048.1.2 switch=n enabled=y phases=2 Linecode=1P_OH_AL_2/0_Rucina_0_416_0_2_2_2_2_2_2_2_2_2_2_2_2_2_2_2_2_2_2_2_2_2_2_2_2_2_2_2_2_2

New Line.l(r:p1rdt445lv-p1rlv10608) Units=km Length=0.0108055 bus1=p1rdt445lv.1.2 bus2=p1rlv10608.1.2 switch=n enabled=y phases=2 Linecode=1P_OH_AL_2/0_Rucina_0_416_0_2_2_2_2_2_2_2_2_2_2_2_2_2_2_2_2_2_2_2_2_2_2_2_2_2_2_2_2_2

New Line.l(r:p1rdm1053-p1rlv455) Units=km Length=0.0108714 bus1=p1rdm1053.1.2 bus2=p1rlv455.1.2 switch=n enabled=y phases=2 Linecode=1P_OH_AL_2/0_Rucina_0_416_0_2_2_2_2_2_2_2_2_2_2_2_2_2_2_2_2_2_2_2_2_2_2_2_2_2_2_2_2_2

New Line.l(r:p1rdm1053-p1rdt445lv) Units=km Length=0.0187706 bus1=p1rdt445lv.1.2 bus2=p1rdm1053.1.2 switch=n enabled=y phases=2 Linecode=1P_OH_AL_2/0_Rucina_0_416_0_2_2_2_2_2_2_2_2_2_2_2_2_2_2_2_2_2_2_2_2_2_2_2_2_2_2_2_2_2

New Line.l(r:p1rdm1054-p1rlv7690) Units=km Length=0.0103401 bus1=p1rdm1054.1.2 bus2=p1rlv7690.1.2 switch=n enabled=y phases=2 Linecode=1P_OH_AL_2/0_Rucina_0_416_0_2_2_2_2_2_2_2_2_2_2_2_2_2_2_2_2_2_2_2_2_2_2_2_2_2_2_2_2_2

New Line.l(r:p1rdm1054-p1rdt445lv) Units=km Length=0.0187618 bus1=p1rdt445lv.1.2 bus2=p1rdm1054.1.2 switch=n enabled=y phases=2 Linecode=1P_OH_AL_2/0_Rucina_0_416_0_2_2_2_2_2_2_2_2_2_2_2_2_2_2_2_2_2_2_2_2_2_2_2_2_2_2_2_2_2

New Line.l(r:p1rdt446lv-p1rlv873) Units=km Length=0.012339400000000002 bus1=p1rdt446lv.1.2 bus2=p1rlv873.1.2 switch=n enabled=y phases=2 Linecode=1P_OH_AL_2/0_Rucina_0_416_0_2_2_2_2_2_2_2_2_2_2_2_2_2_2_2_2_2_2_2_2_2_2_2_2_2_2_2_2_2

New Line.l(r:p1rdt446lv-p1rlv11426) Units=km Length=0.0134506 bus1=p1rdt446lv.1.2 bus2=p1rlv11426.1.2 switch=n enabled=y phases=2 Linecode=1P_OH_AL_2/0_Rucina_0_416_0_2_2_2_2_2_2_2_2_2_2_2_2_2_2_2_2_2_2_2_2_2_2_2_2_2_2_2_2_2

New Line.l(r:p1rdm1056-p1rlv456) Units=km Length=0.0139911 bus1=p1rdm1056.1.2 bus2=p1rlv456.1.2 switch=n enabled=y phases=2 Linecode=1P_OH_AL_2/0_Rucina_0_416_0_2_2_2_2_2_2_2_2_2_2_2_2_2_2_2_2_2_2_2_2_2_2_2_2_2_2_2_2_2

New Line.l(r:p1rdm1056-p1rlv9521) Units=km Length=0.0120281 bus1=p1rdm1056.1.2 bus2=p1rlv9521.1.2 switch=n enabled=y phases=2 Linecode=1P_OH_AL_2/0_Rucina_0_416_0_2_2_2_2_2_2_2_2_2_2_2_2_2_2_2_2_2_2_2_2_2_2_2_2_2_2_2_2_2

New Line.l(r:p1rdm1056-p1rdt446lv) Units=km Length=0.0183688 bus1=p1rdt446lv.1.2 bus2=p1rdm1056.1.2 switch=n enabled=y phases=2 Linecode=1P_OH_AL_2/0_Rucina_0_416_0_2_2_2_2_2_2_2_2_2_2_2_2_2_2_2_2_2_2_2_2_2_2_2_2_2_2_2_2_2

New Line.l(r:p1rdt447lv-p1rlv457) Units=km Length=0.0483619 bus1=p1rdt447lv.1.2 bus2=p1rlv457.1.2 switch=n enabled=y phases=2 Linecode=1P_OH_AL_4/0_Zuzara_0_416_0_2_2_2_2_2_2_2_2_2_2_2_2_2_2_2_2_2_2_2_2_2_2_2_2_2_2_2_2_2

New Line.l(r:p1rdm1061-p1rlv11184) Units=km Length=0.0391877 bus1=p1rdm1061.1.2 bus2=p1rlv11184.1.2 switch=n enabled=y phases=2 Linecode=1P_OH_AL_4/0_Zuzara_0_416_0_2_2_2_2_2_2_2_2_2_2_2_2_2_2_2_2_2_2_2_2_2_2_2_2_2_2_2_2_2

New Line.l(r:p1rdm1061-p1rdt447lv) Units=km Length=0.0462746 bus1=p1rdt447lv.1.2 bus2=p1rdm1061.1.2 switch=n enabled=y phases=2 Linecode=1P_OH_AL_4/0_Zuzara_0_416_0_2_2_2_2_2_2_2_2_2_2_2_2_2_2_2_2_2_2_2_2_2_2_2_2_2_2_2_2_2

New Line.l(r:p1rdm1062-p1rlv13316) Units=km Length=0.060157 bus1=p1rdm1062.1.2 bus2=p1rlv13316.1.2 switch=n enabled=y phases=2 Linecode=1P_OH_AL_4/0_Zuzara_0_416_0_2_2_2_2_2_2_2_2_2_2_2_2_2_2_2_2_2_2_2_2_2_2_2_2_2_2_2_2_2

New Line.l(r:p1rdm1062-p1rdt447lv) Units=km Length=0.0166587 bus1=p1rdt447lv.1.2 bus2=p1rdm1062.1.2 switch=n enabled=y phases=2 Linecode=1P_OH_AL_2/0_Rucina_0_416_0_2_2_2_2_2_2_2_2_2_2_2_2_2_2_2_2_2_2_2_2_2_2_2_2_2_2_2_2_2

New Line.l(r:p1rdt449lv-p1rlv459) Units=km Length=0.0298605 bus1=p1rdt449lv.1.2 bus2=p1rlv459.1.2 switch=n enabled=y phases=2 Linecode=1P_OH_AL_4/0_Zuzara_0_416_0_2_2_2_2_2_2_2_2_2_2_2_2_2_2_2_2_2_2_2_2_2_2_2_2_2_2_2_2_2

New Line.l(r:p1rdt449lv-p1rlv7404) Units=km Length=0.0384143 bus1=p1rdt449lv.1.2 bus2=p1rlv7404.1.2 switch=n enabled=y phases=2 Linecode=1P_OH_AL_4/0_Zuzara_0_416_0_2_2_2_2_2_2_2_2_2_2_2_2_2_2_2_2_2_2_2_2_2_2_2_2_2_2_2_2_2

New Line.l(r:p1rdt449lv-p1rlv8203) Units=km Length=0.024531000000000004 bus1=p1rdt449lv.1.2 bus2=p1rlv8203.1.2 switch=n enabled=y phases=2 Linecode=1P_OH_AL_2/0_Rucina_0_416_0_2_2_2_2_2_2_2_2_2_2_2_2_2_2_2_2_2_2_2_2_2_2_2_2_2_2_2_2_2

New Line.l(r:p1rdt449lv-p1rlv12798) Units=km Length=0.0245658 bus1=p1rdt449lv.1.2 bus2=p1rlv12798.1.2 switch=n enabled=y phases=2 Linecode=1P_OH_AL_2/0_Rucina_0_416_0_2_2_2_2_2_2_2_2_2_2_2_2_2_2_2_2_2_2_2_2_2_2_2_2_2_2_2_2_2

New Line.l(r:p1rdt568lv-p1rlv582) Units=km Length=0.0129924 bus1=p1rdt568lv.1.2 bus2=p1rlv582.1.2 switch=n enabled=y phases=2 Linecode=1P_UG_AL_1/0_Brenau_0_416_0_2_2_2_2_2_2_2_2_2_2_2_2_2_2_2_2_2_2_2_2_2_2_2_2_2_2_2_2_2

New Line.l(r:p1rdt568lv-p1rlv11857) Units=km Length=0.0127236 bus1=p1rdt568lv.1.2 bus2=p1rlv11857.1.2 switch=n enabled=y phases=2 Linecode=1P_UG_AL_1/0_Brenau_0_416_0_2_2_2_2_2_2_2_2_2_2_2_2_2_2_2_2_2_2_2_2_2_2_2_2_2_2_2_2_2

New Line.l(r:p1rdm1326-p1rlv1419) Units=km Length=0.0128052 bus1=p1rdm1326.1.2 bus2=p1rlv1419.1.2 switch=n enabled=y phases=2 Linecode=1P_UG_AL_1/0_Brenau_0_416_0_2_2_2_2_2_2_2_2_2_2_2_2_2_2_2_2_2_2_2_2_2_2_2_2_2_2_2_2_2

New Line.l(r:p1rdm1326-p1rlv9004) Units=km Length=0.0123643 bus1=p1rdm1326.1.2 bus2=p1rlv9004.1.2 switch=n enabled=y phases=2 Linecode=1P_UG_AL_1/0_Brenau_0_416_0_2_2_2_2_2_2_2_2_2_2_2_2_2_2_2_2_2_2_2_2_2_2_2_2_2_2_2_2_2

New Line.l(r:p1rdm1326-p1rdt568lv) Units=km Length=0.0098213 bus1=p1rdt568lv.1.2 bus2=p1rdm1326.1.2 switch=n enabled=y phases=2 Linecode=1P_UG_AL_4/0_Sweetbriar_0_416_0_2_2_2_2_2_2_2_2_2_2_2_2_2_2_2_2_2_2_2_2_2_2_2_2_2_2_2_2_2

New Line.l(r:p1rdm1327-p1rlv1793) Units=km Length=0.012676 bus1=p1rdm1327.1.2 bus2=p1rlv1793.1.2 switch=n enabled=y phases=2 Linecode=1P_UG_AL_1/0_Brenau_0_416_0_2_2_2_2_2_2_2_2_2_2_2_2_2_2_2_2_2_2_2_2_2_2_2_2_2_2_2_2_2

New Line.l(r:p1rdm1328-p1rlv2749) Units=km Length=0.0142275 bus1=p1rdm1328.1.2 bus2=p1rlv2749.1.2 switch=n enabled=y phases=2 Linecode=1P_OH_AL_2/0_Rucina_0_416_0_2_2_2_2_2_2_2_2_2_2_2_2_2_2_2_2_2_2_2_2_2_2_2_2_2_2_2_2_2

New Line.l(r:p1rdm1327-p1rdm1328) Units=km Length=0.0396223 bus1=p1rdm1327.1.2 bus2=p1rdm1328.1.2 switch=n enabled=y phases=2 Linecode=1P_OH_AL_4/0_Zuzara_0_416_0_2_2_2_2_2_2_2_2_2_2_2_2_2_2_2_2_2_2_2_2_2_2_2_2_2_2_2_2_2

New Line.l(r:p1rdm1327-p1rdt568lv) Units=km Length=0.00983476 bus1=p1rdt568lv.1.2 bus2=p1rdm1327.1.2 switch=n enabled=y phases=2 Linecode=1P_UG_AL_4/0_Sweetbriar_0_416_0_2_2_2_2_2_2_2_2_2_2_2_2_2_2_2_2_2_2_2_2_2_2_2_2_2_2_2_2_2

New Line.l(r:p1rdt569lv-p1rlv583) Units=km Length=0.0430456 bus1=p1rdt569lv.1.2 bus2=p1rlv583.1.2 switch=n enabled=y phases=2 Linecode=1P_OH_AL_4/0_Zuzara_0_416_0_2_2_2_2_2_2_2_2_2_2_2_2_2_2_2_2_2_2_2_2_2_2_2_2_2_2_2_2_2

New Line.l(r:p1rdt569lv-p1rlv5983) Units=km Length=0.0430456 bus1=p1rdt569lv.1.2 bus2=p1rlv5983.1.2 switch=n enabled=y phases=2 Linecode=1P_OH_AL_4/0_Zuzara_0_416_0_2_2_2_2_2_2_2_2_2_2_2_2_2_2_2_2_2_2_2_2_2_2_2_2_2_2_2_2_2

New Line.l(r:p1rdt571lv-p1rlv585) Units=km Length=0.0394335 bus1=p1rdt571lv.1.2 bus2=p1rlv585.1.2 switch=n enabled=y phases=2 Linecode=1P_OH_AL_4/0_Zuzara_0_416_0_2_2_2_2_2_2_2_2_2_2_2_2_2_2_2_2_2_2_2_2_2_2_2_2_2_2_2_2_2

New Line.l(r:p1rdt571lv-p1rlv2197) Units=km Length=0.0557261 bus1=p1rdt571lv.1.2 bus2=p1rlv2197.1.2 switch=n enabled=y phases=2 Linecode=1P_OH_AL_4/0_Zuzara_0_416_0_2_2_2_2_2_2_2_2_2_2_2_2_2_2_2_2_2_2_2_2_2_2_2_2_2_2_2_2_2

New Line.l(r:p1rdt571lv-p1rlv9661) Units=km Length=0.0842925 bus1=p1rdt571lv.1.2 bus2=p1rlv9661.1.2 switch=n enabled=y phases=2 Linecode=1P_OH_AL_4/0_Zuzara_0_416_0_2_2_2_2_2_2_2_2_2_2_2_2_2_2_2_2_2_2_2_2_2_2_2_2_2_2_2_2_2

New Line.l(r:p1rdt572lv-p1rlv586) Units=km Length=0.029282100000000002 bus1=p1rdt572lv.1.2 bus2=p1rlv586.1.2 switch=n enabled=y phases=2 Linecode=1P_OH_AL_4/0_Zuzara_0_416_0_2_2_2_2_2_2_2_2_2_2_2_2_2_2_2_2_2_2_2_2_2_2_2_2_2_2_2_2_2

New Line.l(r:p1rdt705lv-p1rlv736) Units=km Length=0.0163114 bus1=p1rdt705lv.1.2 bus2=p1rlv736.1.2 switch=n enabled=y phases=2 Linecode=1P_OH_AL_2/0_Rucina_0_416_0_2_2_2_2_2_2_2_2_2_2_2_2_2_2_2_2_2_2_2_2_2_2_2_2_2_2_2_2_2

New Line.l(r:p1rdt705lv-p1rlv2895) Units=km Length=0.0163114 bus1=p1rdt705lv.1.2 bus2=p1rlv2895.1.2 switch=n enabled=y phases=2 Linecode=1P_OH_AL_2/0_Rucina_0_416_0_2_2_2_2_2_2_2_2_2_2_2_2_2_2_2_2_2_2_2_2_2_2_2_2_2_2_2_2_2

New Line.l(r:p1rdt707lv-p1rlv738) Units=km Length=0.0857576 bus1=p1rdt707lv.1.2 bus2=p1rlv738.1.2 switch=n enabled=y phases=2 Linecode=1P_OH_AL_4/0_Zuzara_0_416_0_2_2_2_2_2_2_2_2_2_2_2_2_2_2_2_2_2_2_2_2_2_2_2_2_2_2_2_2_2

New Line.l(r:p1rdt707lv-p1rlv2484) Units=km Length=0.06612370000000001 bus1=p1rdt707lv.1.2 bus2=p1rlv2484.1.2 switch=n enabled=y phases=2 Linecode=1P_OH_AL_4/0_Zuzara_0_416_0_2_2_2_2_2_2_2_2_2_2_2_2_2_2_2_2_2_2_2_2_2_2_2_2_2_2_2_2_2

New Line.l(r:p1rdm1625-p1rlv7832) Units=km Length=0.0872064 bus1=p1rdm1625.1.2 bus2=p1rlv7832.1.2 switch=n enabled=y phases=2 Linecode=1P_OH_AL_4/0_Zuzara_0_416_0_2_2_2_2_2_2_2_2_2_2_2_2_2_2_2_2_2_2_2_2_2_2_2_2_2_2_2_2_2

New Line.l(r:p1rdm1625-p1rdt707lv) Units=km Length=0.0191116 bus1=p1rdt707lv.1.2 bus2=p1rdm1625.1.2 switch=n enabled=y phases=2 Linecode=1P_OH_AL_2/0_Rucina_0_416_0_2_2_2_2_2_2_2_2_2_2_2_2_2_2_2_2_2_2_2_2_2_2_2_2_2_2_2_2_2

New Line.l(r:p1rdm1626-p1rlv10475) Units=km Length=0.069029 bus1=p1rdm1626.1.2 bus2=p1rlv10475.1.2 switch=n enabled=y phases=2 Linecode=1P_OH_AL_4/0_Zuzara_0_416_0_2_2_2_2_2_2_2_2_2_2_2_2_2_2_2_2_2_2_2_2_2_2_2_2_2_2_2_2_2

New Line.l(r:p1rdm1626-p1rdt707lv) Units=km Length=0.0377242 bus1=p1rdt707lv.1.2 bus2=p1rdm1626.1.2 switch=n enabled=y phases=2 Linecode=1P_OH_AL_4/0_Zuzara_0_416_0_2_2_2_2_2_2_2_2_2_2_2_2_2_2_2_2_2_2_2_2_2_2_2_2_2_2_2_2_2

New Line.l(r:p1rdt708lv-p1rlv739) Units=km Length=0.0856471 bus1=p1rdt708lv.1.2 bus2=p1rlv739.1.2 switch=n enabled=y phases=2 Linecode=1P_OH_AL_4/0_Zuzara_0_416_0_2_2_2_2_2_2_2_2_2_2_2_2_2_2_2_2_2_2_2_2_2_2_2_2_2_2_2_2_2

New Line.l(r:p1rdt712lv-p1rlv744) Units=km Length=0.001 bus1=p1rdt712lv.1.2 bus2=p1rlv744.1.2 switch=n enabled=y phases=2 Linecode=1P_OH_AL_4_Periwinkle_0_416_0_2_2_2_2_2_2_2_2_2_2_2_2_2_2_2_2_2_2_2_2_2_2_2_2_2_2_2_2_2

New Line.l(r:p1rdt835lv-p1rlv874) Units=km Length=0.0135072 bus1=p1rdt835lv.1.2 bus2=p1rlv874.1.2 switch=n enabled=y phases=2 Linecode=1P_UG_AL_2/0_Converse_0_416_0_2_2_2_2_2_2_2_2_2_2_2_2_2_2_2_2_2_2_2_2_2_2_2_2_2_2_2_2_2

New Line.l(r:p1rdt835lv-p1rlv1662) Units=km Length=0.013734100000000003 bus1=p1rdt835lv.1.2 bus2=p1rlv1662.1.2 switch=n enabled=y phases=2 Linecode=1P_UG_AL_4/0_Sweetbriar_0_416_0_2_2_2_2_2_2_2_2_2_2_2_2_2_2_2_2_2_2_2_2_2_2_2_2_2_2_2_2_2

New Line.l(r:p1rdm1897-p1rlv6108) Units=km Length=0.012734800000000001 bus1=p1rdm1897.1.2 bus2=p1rlv6108.1.2 switch=n enabled=y phases=2 Linecode=1P_UG_AL_1/0_Brenau_0_416_0_2_2_2_2_2_2_2_2_2_2_2_2_2_2_2_2_2_2_2_2_2_2_2_2_2_2_2_2_2

New Line.l(r:p1rdm1897-p1rdt835lv) Units=km Length=0.00982587 bus1=p1rdt835lv.1.2 bus2=p1rdm1897.1.2 switch=n enabled=y phases=2 Linecode=1P_UG_AL_1/0_Brenau_0_416_0_2_2_2_2_2_2_2_2_2_2_2_2_2_2_2_2_2_2_2_2_2_2_2_2_2_2_2_2_2

New Line.l(r:p1rdt836lv-p1rlv875) Units=km Length=0.0295271 bus1=p1rdt836lv.1.2 bus2=p1rlv875.1.2 switch=n enabled=y phases=2 Linecode=1P_OH_AL_4/0_Zuzara_0_416_0_2_2_2_2_2_2_2_2_2_2_2_2_2_2_2_2_2_2_2_2_2_2_2_2_2_2_2_2_2

New Line.l(r:p1rdt836lv-p1rlv8867) Units=km Length=0.0295271 bus1=p1rdt836lv.1.2 bus2=p1rlv8867.1.2 switch=n enabled=y phases=2 Linecode=1P_OH_AL_4/0_Zuzara_0_416_0_2_2_2_2_2_2_2_2_2_2_2_2_2_2_2_2_2_2_2_2_2_2_2_2_2_2_2_2_2

New Line.l(r:p1rdt837lv-p1rlv876) Units=km Length=0.0292278 bus1=p1rdt837lv.1.2 bus2=p1rlv876.1.2 switch=n enabled=y phases=2 Linecode=1P_OH_AL_4/0_Zuzara_0_416_0_2_2_2_2_2_2_2_2_2_2_2_2_2_2_2_2_2_2_2_2_2_2_2_2_2_2_2_2_2

New Line.l(r:p1rdt837lv-p1rlv10331) Units=km Length=0.0292278 bus1=p1rdt837lv.1.2 bus2=p1rlv10331.1.2 switch=n enabled=y phases=2 Linecode=1P_OH_AL_4/0_Zuzara_0_416_0_2_2_2_2_2_2_2_2_2_2_2_2_2_2_2_2_2_2_2_2_2_2_2_2_2_2_2_2_2

New Line.l(r:p1rdt839lv-p1rlv878) Units=km Length=0.001 bus1=p1rdt839lv.1.2 bus2=p1rlv878.1.2 switch=n enabled=y phases=2 Linecode=1P_OH_AL_4_Periwinkle_0_416_0_2_2_2_2_2_2_2_2_2_2_2_2_2_2_2_2_2_2_2_2_2_2_2_2_2_2_2_2_2

New Line.l(r:p1rdm1906-p1rlv879) Units=km Length=0.0869539 bus1=p1rdm1906.1.2 bus2=p1rlv879.1.2 switch=n enabled=y phases=2 Linecode=1P_OH_AL_4/0_Zuzara_0_416_0_2_2_2_2_2_2_2_2_2_2_2_2_2_2_2_2_2_2_2_2_2_2_2_2_2_2_2_2_2

New Line.l(r:p1rdm1906-p1rlv2206) Units=km Length=0.076928 bus1=p1rdm1906.1.2 bus2=p1rlv2206.1.2 switch=n enabled=y phases=2 Linecode=1P_OH_AL_4/0_Zuzara_0_416_0_2_2_2_2_2_2_2_2_2_2_2_2_2_2_2_2_2_2_2_2_2_2_2_2_2_2_2_2_2

New Line.l(r:p1rdm1906-p1rdt840lv) Units=km Length=0.0199841 bus1=p1rdt840lv.1.2 bus2=p1rdm1906.1.2 switch=n enabled=y phases=2 Linecode=1P_OH_AL_2/0_Rucina_0_416_0_2_2_2_2_2_2_2_2_2_2_2_2_2_2_2_2_2_2_2_2_2_2_2_2_2_2_2_2_2

New Line.l(r:p1rdm1908-p1rlv5453) Units=km Length=0.0767508 bus1=p1rdm1908.1.2 bus2=p1rlv5453.1.2 switch=n enabled=y phases=2 Linecode=1P_OH_AL_4/0_Zuzara_0_416_0_2_2_2_2_2_2_2_2_2_2_2_2_2_2_2_2_2_2_2_2_2_2_2_2_2_2_2_2_2

New Line.l(r:p1rdm1908-p1rdt840lv) Units=km Length=0.019992900000000004 bus1=p1rdt840lv.1.2 bus2=p1rdm1908.1.2 switch=n enabled=y phases=2 Linecode=1P_OH_AL_2/0_Rucina_0_416_0_2_2_2_2_2_2_2_2_2_2_2_2_2_2_2_2_2_2_2_2_2_2_2_2_2_2_2_2_2

New Line.l(r:p1rdt842lv-p1rlv882) Units=km Length=0.020293 bus1=p1rdt842lv.1.2 bus2=p1rlv882.1.2 switch=n enabled=y phases=2 Linecode=1P_OH_AL_2/0_Rucina_0_416_0_2_2_2_2_2_2_2_2_2_2_2_2_2_2_2_2_2_2_2_2_2_2_2_2_2_2_2_2_2

New Line.l(r:p1rdt842lv-p1rlv2897) Units=km Length=0.020293 bus1=p1rdt842lv.1.2 bus2=p1rlv2897.1.2 switch=n enabled=y phases=2 Linecode=1P_OH_AL_2/0_Rucina_0_416_0_2_2_2_2_2_2_2_2_2_2_2_2_2_2_2_2_2_2_2_2_2_2_2_2_2_2_2_2_2

New Line.l(r:p1rdt965lv-p1rlv1015) Units=km Length=0.0370901 bus1=p1rdt965lv.1.2 bus2=p1rlv1015.1.2 switch=n enabled=y phases=2 Linecode=1P_UG_AL_1/0_Brenau_0_416_0_2_2_2_2_2_2_2_2_2_2_2_2_2_2_2_2_2_2_2_2_2_2_2_2_2_2_2_2_2

New Line.l(r:p1rdt965lv-p1rlv1660) Units=km Length=0.0310567 bus1=p1rdt965lv.1.2 bus2=p1rlv1660.1.2 switch=n enabled=y phases=2 Linecode=1P_UG_AL_1/0_Brenau_0_416_0_2_2_2_2_2_2_2_2_2_2_2_2_2_2_2_2_2_2_2_2_2_2_2_2_2_2_2_2_2

New Line.l(r:p1rdt965lv-p1rlv6106) Units=km Length=0.0127184 bus1=p1rdt965lv.1.2 bus2=p1rlv6106.1.2 switch=n enabled=y phases=2 Linecode=1P_UG_AL_2/0_Converse_0_416_0_2_2_2_2_2_2_2_2_2_2_2_2_2_2_2_2_2_2_2_2_2_2_2_2_2_2_2_2_2

New Line.l(r:p1rdt967lv-p1rlv1017) Units=km Length=0.0356602 bus1=p1rdt967lv.1.2 bus2=p1rlv1017.1.2 switch=n enabled=y phases=2 Linecode=1P_OH_AL_4/0_Zuzara_0_416_0_2_2_2_2_2_2_2_2_2_2_2_2_2_2_2_2_2_2_2_2_2_2_2_2_2_2_2_2_2

New Line.l(r:p1rdt967lv-p1rlv10085) Units=km Length=0.06103460000000001 bus1=p1rdt967lv.1.2 bus2=p1rlv10085.1.2 switch=n enabled=y phases=2 Linecode=1P_OH_AL_4/0_Zuzara_0_416_0_2_2_2_2_2_2_2_2_2_2_2_2_2_2_2_2_2_2_2_2_2_2_2_2_2_2_2_2_2

New Line.l(r:p1rdt968lv-p1rlv1018) Units=km Length=0.001 bus1=p1rdt968lv.1.2 bus2=p1rlv1018.1.2 switch=n enabled=y phases=2 Linecode=1P_OH_AL_4_Periwinkle_0_416_0_2_2_2_2_2_2_2_2_2_2_2_2_2_2_2_2_2_2_2_2_2_2_2_2_2_2_2_2_2

New Line.l(r:p1rdt1073lv-p1rlv1135) Units=km Length=0.0130108 bus1=p1rdt1073lv.1.2 bus2=p1rlv1135.1.2 switch=n enabled=y phases=2 Linecode=1P_OH_AL_2/0_Rucina_0_416_0_2_2_2_2_2_2_2_2_2_2_2_2_2_2_2_2_2_2_2_2_2_2_2_2_2_2_2_2_2

New Line.l(r:p1rdt1074lv-p1rlv1136) Units=km Length=0.0561771 bus1=p1rdt1074lv.1.2 bus2=p1rlv1136.1.2 switch=n enabled=y phases=2 Linecode=1P_OH_AL_4/0_Zuzara_0_416_0_2_2_2_2_2_2_2_2_2_2_2_2_2_2_2_2_2_2_2_2_2_2_2_2_2_2_2_2_2

New Line.l(r:p1rdt1075lv-p1rlv6226) Units=km Length=0.0919539 bus1=p1rdt1075lv.1.2 bus2=p1rlv6226.1.2 switch=n enabled=y phases=2 Linecode=1P_OH_AL_4/0_Zuzara_0_416_0_2_2_2_2_2_2_2_2_2_2_2_2_2_2_2_2_2_2_2_2_2_2_2_2_2_2_2_2_2

New Line.l(r:p1rdt1075lv-p1rlv10886) Units=km Length=0.107672 bus1=p1rdt1075lv.1.2 bus2=p1rlv10886.1.2 switch=n enabled=y phases=2 Linecode=1P_OH_AL_4/0_Zuzara_0_416_0_2_2_2_2_2_2_2_2_2_2_2_2_2_2_2_2_2_2_2_2_2_2_2_2_2_2_2_2_2

New Line.l(r:p1rdm2401-p1rlv1137) Units=km Length=0.0728359 bus1=p1rdm2401.1.2 bus2=p1rlv1137.1.2 switch=n enabled=y phases=2 Linecode=1P_OH_AL_4/0_Zuzara_0_416_0_2_2_2_2_2_2_2_2_2_2_2_2_2_2_2_2_2_2_2_2_2_2_2_2_2_2_2_2_2

New Line.l(r:p1rdm2401-p1rdt1075lv) Units=km Length=0.0150239 bus1=p1rdt1075lv.1.2 bus2=p1rdm2401.1.2 switch=n enabled=y phases=2 Linecode=1P_OH_AL_2/0_Rucina_0_416_0_2_2_2_2_2_2_2_2_2_2_2_2_2_2_2_2_2_2_2_2_2_2_2_2_2_2_2_2_2

New Line.l(r:p1rdt1077lv-p1rlv1139) Units=km Length=0.027252300000000004 bus1=p1rdt1077lv.1.2 bus2=p1rlv1139.1.2 switch=n enabled=y phases=2 Linecode=1P_OH_AL_4/0_Zuzara_0_416_0_2_2_2_2_2_2_2_2_2_2_2_2_2_2_2_2_2_2_2_2_2_2_2_2_2_2_2_2_2

New Line.l(r:p1rdm2406-p1rlv9252) Units=km Length=0.03207120000000001 bus1=p1rdm2406.1.2 bus2=p1rlv9252.1.2 switch=n enabled=y phases=2 Linecode=1P_OH_AL_4/0_Zuzara_0_416_0_2_2_2_2_2_2_2_2_2_2_2_2_2_2_2_2_2_2_2_2_2_2_2_2_2_2_2_2_2

New Line.l(r:p1rdm2406-p1rdt1077lv) Units=km Length=0.0194477 bus1=p1rdt1077lv.1.2 bus2=p1rdm2406.1.2 switch=n enabled=y phases=2 Linecode=1P_OH_AL_2/0_Rucina_0_416_0_2_2_2_2_2_2_2_2_2_2_2_2_2_2_2_2_2_2_2_2_2_2_2_2_2_2_2_2_2

New Line.l(r:p1rdt1078lv-p1rlv1140) Units=km Length=0.06566150000000001 bus1=p1rdt1078lv.1.2 bus2=p1rlv1140.1.2 switch=n enabled=y phases=2 Linecode=1P_OH_AL_4/0_Zuzara_0_416_0_2_2_2_2_2_2_2_2_2_2_2_2_2_2_2_2_2_2_2_2_2_2_2_2_2_2_2_2_2

New Line.l(r:p1rdt1084lv-p1rlv1146) Units=km Length=0.0586729 bus1=p1rdt1084lv.1.2 bus2=p1rlv1146.1.2 switch=n enabled=y phases=2 Linecode=1P_OH_AL_4/0_Zuzara_0_416_0_2_2_2_2_2_2_2_2_2_2_2_2_2_2_2_2_2_2_2_2_2_2_2_2_2_2_2_2_2

New Line.l(r:p1rdm2619-p1rlv1248) Units=km Length=0.0142122 bus1=p1rdm2619.1.2 bus2=p1rlv1248.1.2 switch=n enabled=y phases=2 Linecode=1P_OH_AL_2/0_Rucina_0_416_0_2_2_2_2_2_2_2_2_2_2_2_2_2_2_2_2_2_2_2_2_2_2_2_2_2_2_2_2_2

New Line.l(r:p1rdm2619-p1rdt1177lv) Units=km Length=0.0190677 bus1=p1rdt1177lv.1.2 bus2=p1rdm2619.1.2 switch=n enabled=y phases=2 Linecode=1P_OH_AL_2/0_Rucina_0_416_0_2_2_2_2_2_2_2_2_2_2_2_2_2_2_2_2_2_2_2_2_2_2_2_2_2_2_2_2_2

New Line.l(r:p1rdm2620-p1rlv8585) Units=km Length=0.0148459 bus1=p1rdm2620.1.2 bus2=p1rlv8585.1.2 switch=n enabled=y phases=2 Linecode=1P_OH_AL_2/0_Rucina_0_416_0_2_2_2_2_2_2_2_2_2_2_2_2_2_2_2_2_2_2_2_2_2_2_2_2_2_2_2_2_2

New Line.l(r:p1rdm2620-p1rdt1177lv) Units=km Length=0.0190589 bus1=p1rdt1177lv.1.2 bus2=p1rdm2620.1.2 switch=n enabled=y phases=2 Linecode=1P_OH_AL_2/0_Rucina_0_416_0_2_2_2_2_2_2_2_2_2_2_2_2_2_2_2_2_2_2_2_2_2_2_2_2_2_2_2_2_2

New Line.l(r:p1rdt1178lv-p1rlv1250) Units=km Length=0.013278000000000002 bus1=p1rdt1178lv.1.2 bus2=p1rlv1250.1.2 switch=n enabled=y phases=2 Linecode=1P_OH_AL_2/0_Rucina_0_416_0_2_2_2_2_2_2_2_2_2_2_2_2_2_2_2_2_2_2_2_2_2_2_2_2_2_2_2_2_2

New Line.l(r:p1rdt1178lv-p1rlv1663) Units=km Length=0.0126105 bus1=p1rdt1178lv.1.2 bus2=p1rlv1663.1.2 switch=n enabled=y phases=2 Linecode=1P_OH_AL_2/0_Rucina_0_416_0_2_2_2_2_2_2_2_2_2_2_2_2_2_2_2_2_2_2_2_2_2_2_2_2_2_2_2_2_2

New Line.l(r:p1rdt1182lv-p1rlv1254) Units=km Length=0.0508271 bus1=p1rdt1182lv.1.2 bus2=p1rlv1254.1.2 switch=n enabled=y phases=2 Linecode=1P_UG_AL_1/0_Brenau_0_416_0_2_2_2_2_2_2_2_2_2_2_2_2_2_2_2_2_2_2_2_2_2_2_2_2_2_2_2_2_2

New Line.l(r:p1rdt1183lv-p1rlv1255) Units=km Length=0.063748 bus1=p1rdt1183lv.1.2 bus2=p1rlv1255.1.2 switch=n enabled=y phases=2 Linecode=1P_OH_AL_4/0_Zuzara_0_416_0_2_2_2_2_2_2_2_2_2_2_2_2_2_2_2_2_2_2_2_2_2_2_2_2_2_2_2_2_2

New Line.l(r:p1rdm2629-p1rlv5568) Units=km Length=0.0875295 bus1=p1rdm2629.1.2 bus2=p1rlv5568.1.2 switch=n enabled=y phases=2 Linecode=1P_OH_AL_4/0_Zuzara_0_416_0_2_2_2_2_2_2_2_2_2_2_2_2_2_2_2_2_2_2_2_2_2_2_2_2_2_2_2_2_2

New Line.l(r:p1rdm2629-p1rdt1183lv) Units=km Length=0.0139253 bus1=p1rdt1183lv.1.2 bus2=p1rdm2629.1.2 switch=n enabled=y phases=2 Linecode=1P_OH_AL_2/0_Rucina_0_416_0_2_2_2_2_2_2_2_2_2_2_2_2_2_2_2_2_2_2_2_2_2_2_2_2_2_2_2_2_2

New Line.l(r:p1rdt1184lv-p1rlv1257) Units=km Length=0.019264500000000004 bus1=p1rdt1184lv.1.2 bus2=p1rlv1257.1.2 switch=n enabled=y phases=2 Linecode=1P_OH_AL_2/0_Rucina_0_416_0_2_2_2_2_2_2_2_2_2_2_2_2_2_2_2_2_2_2_2_2_2_2_2_2_2_2_2_2_2

New Line.l(r:p1rdt1184lv-p1rlv5844) Units=km Length=0.083183 bus1=p1rdt1184lv.1.2 bus2=p1rlv5844.1.2 switch=n enabled=y phases=2 Linecode=1P_OH_AL_4/0_Zuzara_0_416_0_2_2_2_2_2_2_2_2_2_2_2_2_2_2_2_2_2_2_2_2_2_2_2_2_2_2_2_2_2

New Line.l(r:p1rdt1184lv-p1rlv6857) Units=km Length=0.0346737 bus1=p1rdt1184lv.1.2 bus2=p1rlv6857.1.2 switch=n enabled=y phases=2 Linecode=1P_OH_AL_4/0_Zuzara_0_416_0_2_2_2_2_2_2_2_2_2_2_2_2_2_2_2_2_2_2_2_2_2_2_2_2_2_2_2_2_2

New Line.l(r:p1rdt1184lv-p1rlv12144) Units=km Length=0.0527696 bus1=p1rdt1184lv.1.2 bus2=p1rlv12144.1.2 switch=n enabled=y phases=2 Linecode=1P_OH_AL_4/0_Zuzara_0_416_0_2_2_2_2_2_2_2_2_2_2_2_2_2_2_2_2_2_2_2_2_2_2_2_2_2_2_2_2_2

New Line.l(r:p1rdt1186lv-p1rlv1259) Units=km Length=0.0228299 bus1=p1rdt1186lv.1.2 bus2=p1rlv1259.1.2 switch=n enabled=y phases=2 Linecode=1P_OH_AL_2/0_Rucina_0_416_0_2_2_2_2_2_2_2_2_2_2_2_2_2_2_2_2_2_2_2_2_2_2_2_2_2_2_2_2_2

New Line.l(r:p1rdt1322lv-p1rlv1417) Units=km Length=0.0116221 bus1=p1rdt1322lv.1.2 bus2=p1rlv1417.1.2 switch=n enabled=y phases=2 Linecode=1P_OH_AL_2/0_Rucina_0_416_0_2_2_2_2_2_2_2_2_2_2_2_2_2_2_2_2_2_2_2_2_2_2_2_2_2_2_2_2_2

New Line.l(r:p1rdt1322lv-p1rlv4351) Units=km Length=0.0153057 bus1=p1rdt1322lv.1.2 bus2=p1rlv4351.1.2 switch=n enabled=y phases=2 Linecode=1P_OH_AL_2/0_Rucina_0_416_0_2_2_2_2_2_2_2_2_2_2_2_2_2_2_2_2_2_2_2_2_2_2_2_2_2_2_2_2_2

New Line.l(r:p1rdt1322lv-p1rlv5564) Units=km Length=0.0152053 bus1=p1rdt1322lv.1.2 bus2=p1rlv5564.1.2 switch=n enabled=y phases=2 Linecode=1P_OH_AL_2/0_Rucina_0_416_0_2_2_2_2_2_2_2_2_2_2_2_2_2_2_2_2_2_2_2_2_2_2_2_2_2_2_2_2_2

New Line.l(r:p1rdt1323lv-p1rlv1418) Units=km Length=0.0124742 bus1=p1rdt1323lv.1.2 bus2=p1rlv1418.1.2 switch=n enabled=y phases=2 Linecode=1P_UG_AL_4/0_Sweetbriar_0_416_0_2_2_2_2_2_2_2_2_2_2_2_2_2_2_2_2_2_2_2_2_2_2_2_2_2_2_2_2_2
