New Line.l(r:p5udt164lv-p5ulv18767) Units=km Length=0.0336172 bus1=p5udt164lv.1.2 bus2=p5ulv18767.1.2 switch=n enabled=y phases=2 Linecode=1P_UG_AL_1/0_Brenau_0_416_0_2_2_2_2

New Line.l(r:p5udt164lv-p5ulv78436) Units=km Length=0.00671345 bus1=p5udt164lv.1.2 bus2=p5ulv78436.1.2 switch=n enabled=y phases=2 Linecode=1P_UG_AL_1/0_Brenau_0_416_0_2_2_2_2

New Line.l(r:p5udm635-p5ulv167) Units=km Length=0.0139625 bus1=p5udm635.1.2 bus2=p5ulv167.1.2 switch=n enabled=y phases=2 Linecode=1P_UG_AL_1/0_Brenau_0_416_0_2_2_2_2

New Line.l(r:p5udm635-p5udt164lv) Units=km Length=0.0149582 bus1=p5udt164lv.1.2 bus2=p5udm635.1.2 switch=n enabled=y phases=2 Linecode=1P_UG_AL_1/0_Brenau_0_416_0_2_2_2_2

New Line.l(r:p5udm636-p5ulv2591) Units=km Length=0.0162835 bus1=p5udm636.1.2 bus2=p5ulv2591.1.2 switch=n enabled=y phases=2 Linecode=1P_UG_AL_1/0_Brenau_0_416_0_2_2_2_2

New Line.l(r:p5udm636-p5udt164lv) Units=km Length=0.00957326 bus1=p5udt164lv.1.2 bus2=p5udm636.1.2 switch=n enabled=y phases=2 Linecode=1P_UG_AL_1/0_Brenau_0_416_0_2_2_2_2

New Line.l(r:p5udt165lv-p5ulv77914) Units=km Length=0.00577382 bus1=p5udt165lv.1.2 bus2=p5ulv77914.1.2 switch=n enabled=y phases=2 Linecode=1P_OH_AL_2/0_Rucina_0_416_0_2_2_2_2

New Line.l(r:p5udt165lv-p5ulv78476) Units=km Length=0.00442143 bus1=p5udt165lv.1.2 bus2=p5ulv78476.1.2 switch=n enabled=y phases=2 Linecode=1P_OH_AL_2/0_Rucina_0_416_0_2_2_2_2

New Line.l(r:p5udm639-p5ulv168) Units=km Length=0.0137978 bus1=p5udm639.1.2 bus2=p5ulv168.1.2 switch=n enabled=y phases=2 Linecode=1P_OH_AL_2/0_Rucina_0_416_0_2_2_2_2

New Line.l(r:p5udm639-p5udt165lv) Units=km Length=0.0191415 bus1=p5udt165lv.1.2 bus2=p5udm639.1.2 switch=n enabled=y phases=2 Linecode=1P_OH_AL_2/0_Rucina_0_416_0_2_2_2_2

New Line.l(r:p5udt166lv-p5ulv16315) Units=km Length=0.0175635 bus1=p5udt166lv.1.2 bus2=p5ulv16315.1.2 switch=n enabled=y phases=2 Linecode=1P_UG_AL_1/0_Brenau_0_416_0_2_2_2_2

New Line.l(r:p5udt166lv-p5ulv78474) Units=km Length=0.0147551 bus1=p5udt166lv.1.2 bus2=p5ulv78474.1.2 switch=n enabled=y phases=2 Linecode=1P_UG_AL_1/0_Brenau_0_416_0_2_2_2_2

New Line.l(r:p5udm642-p5ulv169) Units=km Length=0.0222083 bus1=p5udm642.1.2 bus2=p5ulv169.1.2 switch=n enabled=y phases=2 Linecode=1P_UG_AL_1/0_Brenau_0_416_0_2_2_2_2

New Line.l(r:p5udm646-p5ulv8702) Units=km Length=0.0149993 bus1=p5udm646.1.2 bus2=p5ulv8702.1.2 switch=n enabled=y phases=2 Linecode=1P_UG_AL_1/0_Brenau_0_416_0_2_2_2_2

New Line.l(r:p5udm644-p5ulv2779) Units=km Length=0.0253363 bus1=p5udm644.1.2 bus2=p5ulv2779.1.2 switch=n enabled=y phases=2 Linecode=1P_UG_AL_1/0_Brenau_0_416_0_2_2_2_2

New Line.l(r:p5udm644-p5udm646) Units=km Length=0.00977933 bus1=p5udm646.1.2 bus2=p5udm644.1.2 switch=n enabled=y phases=2 Linecode=1P_UG_AL_1/0_Brenau_0_416_0_2_2_2_2

New Line.l(r:p5udm642-p5udm646) Units=km Length=0.00977933 bus1=p5udm642.1.2 bus2=p5udm646.1.2 switch=n enabled=y phases=2 Linecode=1P_UG_AL_2/0_Converse_0_416_0_2_2_2_2

New Line.l(r:p5udm642-p5udt166lv) Units=km Length=0.00977573 bus1=p5udt166lv.1.2 bus2=p5udm642.1.2 switch=n enabled=y phases=2 Linecode=1P_UG_AL_4/0_Sweetbriar_0_416_0_2_2_2_2

New Line.l(r:p5udm643-p5ulv2592) Units=km Length=0.0165671 bus1=p5udm643.1.2 bus2=p5ulv2592.1.2 switch=n enabled=y phases=2 Linecode=1P_UG_AL_1/0_Brenau_0_416_0_2_2_2_2

New Line.l(r:p5udm648-p5ulv77921) Units=km Length=0.0160097 bus1=p5udm648.1.2 bus2=p5ulv77921.1.2 switch=n enabled=y phases=2 Linecode=1P_UG_AL_1/0_Brenau_0_416_0_2_2_2_2

New Line.l(r:p5udm645-p5ulv3913) Units=km Length=0.0161709 bus1=p5udm645.1.2 bus2=p5ulv3913.1.2 switch=n enabled=y phases=2 Linecode=1P_UG_AL_1/0_Brenau_0_416_0_2_2_2_2

New Line.l(r:p5udm645-p5udm648) Units=km Length=0.00977933 bus1=p5udm648.1.2 bus2=p5udm645.1.2 switch=n enabled=y phases=2 Linecode=1P_UG_AL_1/0_Brenau_0_416_0_2_2_2_2

New Line.l(r:p5udm643-p5udm648) Units=km Length=0.00977933 bus1=p5udm643.1.2 bus2=p5udm648.1.2 switch=n enabled=y phases=2 Linecode=1P_UG_AL_2/0_Converse_0_416_0_2_2_2_2

New Line.l(r:p5udm643-p5udt166lv) Units=km Length=0.009788660000000001 bus1=p5udt166lv.1.2 bus2=p5udm643.1.2 switch=n enabled=y phases=2 Linecode=1P_UG_AL_4/0_Sweetbriar_0_416_0_2_2_2_2

New Line.l(r:p5udt167lv-p5ulv170) Units=km Length=0.018288900000000004 bus1=p5udt167lv.1.2 bus2=p5ulv170.1.2 switch=n enabled=y phases=2 Linecode=1P_UG_AL_1/0_Brenau_0_416_0_2_2_2_2

New Line.l(r:p5udt167lv-p5ulv365) Units=km Length=0.0138272 bus1=p5udt167lv.1.2 bus2=p5ulv365.1.2 switch=n enabled=y phases=2 Linecode=1P_UG_AL_1/0_Brenau_0_416_0_2_2_2_2

New Line.l(r:p5udm652-p5ulv6127) Units=km Length=0.0153148 bus1=p5udm652.1.2 bus2=p5ulv6127.1.2 switch=n enabled=y phases=2 Linecode=1P_UG_AL_1/0_Brenau_0_416_0_2_2_2_2

New Line.l(r:p5udm652-p5ulv12131) Units=km Length=0.0124563 bus1=p5udm652.1.2 bus2=p5ulv12131.1.2 switch=n enabled=y phases=2 Linecode=1P_UG_AL_1/0_Brenau_0_416_0_2_2_2_2

New Line.l(r:p5udm653-p5ulv8909) Units=km Length=0.0188674 bus1=p5udm653.1.2 bus2=p5ulv8909.1.2 switch=n enabled=y phases=2 Linecode=1P_UG_AL_1/0_Brenau_0_416_0_2_2_2_2

New Line.l(r:p5udm652-p5udm653) Units=km Length=0.00988342 bus1=p5udm652.1.2 bus2=p5udm653.1.2 switch=n enabled=y phases=2 Linecode=1P_UG_AL_1/0_Brenau_0_416_0_2_2_2_2

New Line.l(r:p5udm652-p5udt167lv) Units=km Length=0.00988703 bus1=p5udt167lv.1.2 bus2=p5udm652.1.2 switch=n enabled=y phases=2 Linecode=1P_UG_AL_4/0_Sweetbriar_0_416_0_2_2_2_2

New Line.l(r:p5udm655-p5ulv16497) Units=km Length=0.0202702 bus1=p5udm655.1.2 bus2=p5ulv16497.1.2 switch=n enabled=y phases=2 Linecode=1P_UG_AL_1/0_Brenau_0_416_0_2_2_2_2

New Line.l(r:p5udm655-p5udt167lv) Units=km Length=0.00988342 bus1=p5udt167lv.1.2 bus2=p5udm655.1.2 switch=n enabled=y phases=2 Linecode=1P_UG_AL_1/0_Brenau_0_416_0_2_2_2_2

New Line.l(r:p5udt168lv-p5ulv171) Units=km Length=0.00319514 bus1=p5udt168lv.1.2 bus2=p5ulv171.1.2 switch=n enabled=y phases=2 Linecode=1P_OH_AL_4_Periwinkle_0_416_0_2_2_2_2

New Line.l(r:p5udt168lv-p5ulv9677) Units=km Length=0.0118249 bus1=p5udt168lv.1.2 bus2=p5ulv9677.1.2 switch=n enabled=y phases=2 Linecode=1P_OH_AL_2/0_Rucina_0_416_0_2_2_2_2

New Line.l(r:p5udt169lv-p5ulv1122) Units=km Length=0.0136367 bus1=p5udt169lv.1.2 bus2=p5ulv1122.1.2 switch=n enabled=y phases=2 Linecode=1P_OH_AL_2/0_Rucina_0_416_0_2_2_2_2

New Line.l(r:p5udm658-p5ulv172) Units=km Length=0.0148189 bus1=p5udm658.1.2 bus2=p5ulv172.1.2 switch=n enabled=y phases=2 Linecode=1P_OH_AL_2/0_Rucina_0_416_0_2_2_2_2

New Line.l(r:p5udm658-p5udt169lv) Units=km Length=0.0194877 bus1=p5udt169lv.1.2 bus2=p5udm658.1.2 switch=n enabled=y phases=2 Linecode=1P_OH_AL_2/0_Rucina_0_416_0_2_2_2_2

New Line.l(r:p5udm660-p5ulv10992) Units=km Length=0.00894536 bus1=p5udm660.1.2 bus2=p5ulv10992.1.2 switch=n enabled=y phases=2 Linecode=1P_OH_AL_2/0_Rucina_0_416_0_2_2_2_2

New Line.l(r:p5udm660-p5udt169lv) Units=km Length=0.034771 bus1=p5udt169lv.1.2 bus2=p5udm660.1.2 switch=n enabled=y phases=2 Linecode=1P_OH_AL_4/0_Zuzara_0_416_0_2_2_2_2

New Line.l(r:p5udm675-p5ulv177) Units=km Length=0.0133057 bus1=p5udm675.1.2 bus2=p5ulv177.1.2 switch=n enabled=y phases=2 Linecode=1P_UG_AL_1/0_Brenau_0_416_0_2_2_2_2

New Line.l(r:p5udm675-p5ulv5578) Units=km Length=0.0165586 bus1=p5udm675.1.2 bus2=p5ulv5578.1.2 switch=n enabled=y phases=2 Linecode=1P_UG_AL_1/0_Brenau_0_416_0_2_2_2_2

New Line.l(r:p5udm676-p5ulv1124) Units=km Length=0.0174206 bus1=p5udm676.1.2 bus2=p5ulv1124.1.2 switch=n enabled=y phases=2 Linecode=1P_UG_AL_1/0_Brenau_0_416_0_2_2_2_2

New Line.l(r:p5udm681-p5ulv13646) Units=km Length=0.0161465 bus1=p5udm681.1.2 bus2=p5ulv13646.1.2 switch=n enabled=y phases=2 Linecode=1P_UG_AL_1/0_Brenau_0_416_0_2_2_2_2

New Line.l(r:p5udm676-p5udm681) Units=km Length=0.0099388 bus1=p5udm676.1.2 bus2=p5udm681.1.2 switch=n enabled=y phases=2 Linecode=1P_UG_AL_1/0_Brenau_0_416_0_2_2_2_2

New Line.l(r:p5udm675-p5udm676) Units=km Length=0.00994812 bus1=p5udm675.1.2 bus2=p5udm676.1.2 switch=n enabled=y phases=2 Linecode=1P_UG_AL_2/0_Converse_0_416_0_2_2_2_2

New Line.l(r:p5udm675-p5udt172lv) Units=km Length=0.00994449 bus1=p5udt172lv.1.2 bus2=p5udm675.1.2 switch=n enabled=y phases=2 Linecode=1P_UG_AL_4/0_Sweetbriar_0_416_0_2_2_2_2

New Line.l(r:p5udm679-p5ulv10230) Units=km Length=0.0157577 bus1=p5udm679.1.2 bus2=p5ulv10230.1.2 switch=n enabled=y phases=2 Linecode=1P_UG_AL_1/0_Brenau_0_416_0_2_2_2_2

New Line.l(r:p5udm679-p5ulv10993) Units=km Length=0.0131878 bus1=p5udm679.1.2 bus2=p5ulv10993.1.2 switch=n enabled=y phases=2 Linecode=1P_UG_AL_1/0_Brenau_0_416_0_2_2_2_2

New Line.l(r:p5udm678-p5ulv8159) Units=km Length=0.0191963 bus1=p5udm678.1.2 bus2=p5ulv8159.1.2 switch=n enabled=y phases=2 Linecode=1P_UG_AL_1/0_Brenau_0_416_0_2_2_2_2

New Line.l(r:p5udm678-p5udm679) Units=km Length=0.00994812 bus1=p5udm679.1.2 bus2=p5udm678.1.2 switch=n enabled=y phases=2 Linecode=1P_UG_AL_1/0_Brenau_0_416_0_2_2_2_2

New Line.l(r:p5udm679-p5udt172lv) Units=km Length=0.00994812 bus1=p5udt172lv.1.2 bus2=p5udm679.1.2 switch=n enabled=y phases=2 Linecode=1P_UG_AL_4/0_Sweetbriar_0_416_0_2_2_2_2

New Line.l(r:p5udt173lv-p5ulv178) Units=km Length=0.0106853 bus1=p5udt173lv.1.2 bus2=p5ulv178.1.2 switch=n enabled=y phases=2 Linecode=1P_OH_AL_2/0_Rucina_0_416_0_2_2_2_2

New Line.l(r:p5udt180lv-p5ulv186) Units=km Length=0.00722558 bus1=p5udt180lv.1.2 bus2=p5ulv186.1.2 switch=n enabled=y phases=2 Linecode=1P_UG_AL_1/0_Brenau_0_416_0_2_2_2_2

New Line.l(r:p5udm716-p5ulv2790) Units=km Length=0.0118494 bus1=p5udm716.1.2 bus2=p5ulv2790.1.2 switch=n enabled=y phases=2 Linecode=1P_UG_AL_1/0_Brenau_0_416_0_2_2_2_2

New Line.l(r:p5udm716-p5udt180lv) Units=km Length=0.00851719 bus1=p5udt180lv.1.2 bus2=p5udm716.1.2 switch=n enabled=y phases=2 Linecode=1P_UG_AL_1/0_Brenau_0_416_0_2_2_2_2

New Line.l(r:p5udm717-p5ulv74579) Units=km Length=0.0120077 bus1=p5udm717.1.2 bus2=p5ulv74579.1.2 switch=n enabled=y phases=2 Linecode=1P_UG_AL_1/0_Brenau_0_416_0_2_2_2_2

New Line.l(r:p5udm717-p5udt180lv) Units=km Length=0.00851141 bus1=p5udt180lv.1.2 bus2=p5udm717.1.2 switch=n enabled=y phases=2 Linecode=1P_UG_AL_1/0_Brenau_0_416_0_2_2_2_2

New Line.l(r:p5udt182lv-p5ulv188) Units=km Length=0.0127229 bus1=p5udt182lv.1.2 bus2=p5ulv188.1.2 switch=n enabled=y phases=2 Linecode=1P_OH_AL_2/0_Rucina_0_416_0_2_2_2_2

New Line.l(r:p5udt182lv-p5ulv10796) Units=km Length=0.0159843 bus1=p5udt182lv.1.2 bus2=p5ulv10796.1.2 switch=n enabled=y phases=2 Linecode=1P_OH_AL_2/0_Rucina_0_416_0_2_2_2_2

New Line.l(r:p5udm725-p5ulv7439) Units=km Length=0.0152568 bus1=p5udm725.1.2 bus2=p5ulv7439.1.2 switch=n enabled=y phases=2 Linecode=1P_OH_AL_2/0_Rucina_0_416_0_2_2_2_2

New Line.l(r:p5udm725-p5ulv14708) Units=km Length=0.013596800000000001 bus1=p5udm725.1.2 bus2=p5ulv14708.1.2 switch=n enabled=y phases=2 Linecode=1P_OH_AL_2/0_Rucina_0_416_0_2_2_2_2

New Line.l(r:p5udm725-p5udt182lv) Units=km Length=0.0169476 bus1=p5udt182lv.1.2 bus2=p5udm725.1.2 switch=n enabled=y phases=2 Linecode=1P_OH_AL_2/0_Rucina_0_416_0_2_2_2_2

New Line.l(r:p5udm726-p5ulv10397) Units=km Length=0.0103843 bus1=p5udm726.1.2 bus2=p5ulv10397.1.2 switch=n enabled=y phases=2 Linecode=1P_UG_AL_1/0_Brenau_0_416_0_2_2_2_2

New Line.l(r:p5udm729-p5ulv77939) Units=km Length=0.0127965 bus1=p5udm729.1.2 bus2=p5ulv77939.1.2 switch=n enabled=y phases=2 Linecode=1P_UG_AL_1/0_Brenau_0_416_0_2_2_2_2

New Line.l(r:p5udm726-p5udm729) Units=km Length=0.00898178 bus1=p5udm726.1.2 bus2=p5udm729.1.2 switch=n enabled=y phases=2 Linecode=1P_UG_AL_1/0_Brenau_0_416_0_2_2_2_2

New Line.l(r:p5udm726-p5udt182lv) Units=km Length=0.0518343 bus1=p5udt182lv.1.2 bus2=p5udm726.1.2 switch=n enabled=y phases=2 Linecode=1P_OH_AL_4/0_Zuzara_0_416_0_2_2_2_2

New Line.l(r:p5udt345lv-p5ulv6866) Units=km Length=0.014417500000000001 bus1=p5udt345lv.1.2 bus2=p5ulv6866.1.2 switch=n enabled=y phases=2 Linecode=1P_UG_AL_1/0_Brenau_0_416_0_2_2_2_2

New Line.l(r:p5udm1325-p5ulv359) Units=km Length=0.0173138 bus1=p5udm1325.1.2 bus2=p5ulv359.1.2 switch=n enabled=y phases=2 Linecode=1P_UG_AL_1/0_Brenau_0_416_0_2_2_2_2

New Line.l(r:p5udm1325-p5ulv3736) Units=km Length=0.015315500000000001 bus1=p5udm1325.1.2 bus2=p5ulv3736.1.2 switch=n enabled=y phases=2 Linecode=1P_UG_AL_1/0_Brenau_0_416_0_2_2_2_2

New Line.l(r:p5udm1325-p5ulv48196) Units=km Length=0.0160262 bus1=p5udm1325.1.2 bus2=p5ulv48196.1.2 switch=n enabled=y phases=2 Linecode=1P_UG_AL_1/0_Brenau_0_416_0_2_2_2_2

New Line.l(r:p5udm1325-p5udt345lv) Units=km Length=0.00988703 bus1=p5udt345lv.1.2 bus2=p5udm1325.1.2 switch=n enabled=y phases=2 Linecode=1P_UG_AL_4/0_Sweetbriar_0_416_0_2_2_2_2

New Line.l(r:p5udm1326-p5ulv2409) Units=km Length=0.014968300000000002 bus1=p5udm1326.1.2 bus2=p5ulv2409.1.2 switch=n enabled=y phases=2 Linecode=1P_UG_AL_1/0_Brenau_0_416_0_2_2_2_2

New Line.l(r:p5udm1326-p5ulv4072) Units=km Length=0.0150169 bus1=p5udm1326.1.2 bus2=p5ulv4072.1.2 switch=n enabled=y phases=2 Linecode=1P_UG_AL_1/0_Brenau_0_416_0_2_2_2_2

New Line.l(r:p5udm1330-p5ulv18768) Units=km Length=0.0162597 bus1=p5udm1330.1.2 bus2=p5ulv18768.1.2 switch=n enabled=y phases=2 Linecode=1P_UG_AL_1/0_Brenau_0_416_0_2_2_2_2

New Line.l(r:p5udm1326-p5udm1330) Units=km Length=0.0577321 bus1=p5udm1326.1.2 bus2=p5udm1330.1.2 switch=n enabled=y phases=2 Linecode=1P_UG_AL_1/0_Brenau_0_416_0_2_2_2_2

New Line.l(r:p5udm1326-p5udt345lv) Units=km Length=0.00988342 bus1=p5udt345lv.1.2 bus2=p5udm1326.1.2 switch=n enabled=y phases=2 Linecode=1P_UG_AL_4/0_Sweetbriar_0_416_0_2_2_2_2

New Line.l(r:p5udt346lv-p5ulv360) Units=km Length=0.0165343 bus1=p5udt346lv.1.2 bus2=p5ulv360.1.2 switch=n enabled=y phases=2 Linecode=1P_OH_AL_2/0_Rucina_0_416_0_2_2_2_2

New Line.l(r:p5udm1333-p5ulv1825) Units=km Length=0.0170675 bus1=p5udm1333.1.2 bus2=p5ulv1825.1.2 switch=n enabled=y phases=2 Linecode=1P_OH_AL_2/0_Rucina_0_416_0_2_2_2_2

New Line.l(r:p5udm1333-p5ulv77924) Units=km Length=0.0149959 bus1=p5udm1333.1.2 bus2=p5ulv77924.1.2 switch=n enabled=y phases=2 Linecode=1P_OH_AL_2/0_Rucina_0_416_0_2_2_2_2

New Line.l(r:p5udm1333-p5udt346lv) Units=km Length=0.0195764 bus1=p5udt346lv.1.2 bus2=p5udm1333.1.2 switch=n enabled=y phases=2 Linecode=1P_OH_AL_2/0_Rucina_0_416_0_2_2_2_2

New Line.l(r:p5udm1334-p5ulv9492) Units=km Length=0.0130263 bus1=p5udm1334.1.2 bus2=p5ulv9492.1.2 switch=n enabled=y phases=2 Linecode=1P_OH_AL_2/0_Rucina_0_416_0_2_2_2_2

New Line.l(r:p5udm1334-p5ulv14527) Units=km Length=0.0120927 bus1=p5udm1334.1.2 bus2=p5ulv14527.1.2 switch=n enabled=y phases=2 Linecode=1P_OH_AL_2/0_Rucina_0_416_0_2_2_2_2

New Line.l(r:p5udm1335-p5ulv9819) Units=km Length=0.0154017 bus1=p5udm1335.1.2 bus2=p5ulv9819.1.2 switch=n enabled=y phases=2 Linecode=1P_OH_AL_2/0_Rucina_0_416_0_2_2_2_2

New Line.l(r:p5udm1334-p5udm1335) Units=km Length=0.0195671 bus1=p5udm1334.1.2 bus2=p5udm1335.1.2 switch=n enabled=y phases=2 Linecode=1P_OH_AL_2/0_Rucina_0_416_0_2_2_2_2

New Line.l(r:p5udm1334-p5udt346lv) Units=km Length=0.0195634 bus1=p5udt346lv.1.2 bus2=p5udm1334.1.2 switch=n enabled=y phases=2 Linecode=1P_OH_AL_2/0_Rucina_0_416_0_2_2_2_2

New Line.l(r:p5udt347lv-p5ulv17250) Units=km Length=0.00618686 bus1=p5udt347lv.1.2 bus2=p5ulv17250.1.2 switch=n enabled=y phases=2 Linecode=1P_OH_AL_2/0_Rucina_0_416_0_2_2_2_2

New Line.l(r:p5udm1340-p5ulv17640) Units=km Length=0.00663392 bus1=p5udm1340.1.2 bus2=p5ulv17640.1.2 switch=n enabled=y phases=2 Linecode=1P_OH_AL_2/0_Rucina_0_416_0_2_2_2_2

New Line.l(r:p5udm1338-p5ulv361) Units=km Length=0.014547300000000003 bus1=p5udm1338.1.2 bus2=p5ulv361.1.2 switch=n enabled=y phases=2 Linecode=1P_OH_AL_2/0_Rucina_0_416_0_2_2_2_2

New Line.l(r:p5udm1338-p5udm1340) Units=km Length=0.0196822 bus1=p5udm1340.1.2 bus2=p5udm1338.1.2 switch=n enabled=y phases=2 Linecode=1P_OH_AL_2/0_Rucina_0_416_0_2_2_2_2

New Line.l(r:p5udm1340-p5udt347lv) Units=km Length=0.0196784 bus1=p5udt347lv.1.2 bus2=p5udm1340.1.2 switch=n enabled=y phases=2 Linecode=1P_OH_AL_2/0_Rucina_0_416_0_2_2_2_2

New Line.l(r:p5udm1341-p5ulv18014) Units=km Length=0.00627065 bus1=p5udm1341.1.2 bus2=p5ulv18014.1.2 switch=n enabled=y phases=2 Linecode=1P_OH_AL_2/0_Rucina_0_416_0_2_2_2_2

New Line.l(r:p5udm1341-p5udt347lv) Units=km Length=0.0196822 bus1=p5udt347lv.1.2 bus2=p5udm1341.1.2 switch=n enabled=y phases=2 Linecode=1P_OH_AL_2/0_Rucina_0_416_0_2_2_2_2

New Line.l(r:p5udt348lv-p5ulv362) Units=km Length=0.0095606 bus1=p5udt348lv.1.2 bus2=p5ulv362.1.2 switch=n enabled=y phases=2 Linecode=1P_OH_AL_2/0_Rucina_0_416_0_2_2_2_2

New Line.l(r:p5udt348lv-p5ulv19154) Units=km Length=0.010601700000000002 bus1=p5udt348lv.1.2 bus2=p5ulv19154.1.2 switch=n enabled=y phases=2 Linecode=1P_OH_AL_2/0_Rucina_0_416_0_2_2_2_2

New Line.l(r:p5udt350lv-p5ulv364) Units=km Length=0.0236688 bus1=p5udt350lv.1.2 bus2=p5ulv364.1.2 switch=n enabled=y phases=2 Linecode=1P_UG_AL_1/0_Brenau_0_416_0_2_2_2_2

New Line.l(r:p5udt350lv-p5ulv28849) Units=km Length=0.0123619 bus1=p5udt350lv.1.2 bus2=p5ulv28849.1.2 switch=n enabled=y phases=2 Linecode=1P_UG_AL_1/0_Brenau_0_416_0_2_2_2_2

New Line.l(r:p5udm1346-p5ulv7791) Units=km Length=0.013548500000000002 bus1=p5udm1346.1.2 bus2=p5ulv7791.1.2 switch=n enabled=y phases=2 Linecode=1P_UG_AL_1/0_Brenau_0_416_0_2_2_2_2

New Line.l(r:p5udm1346-p5ulv13259) Units=km Length=0.019183100000000005 bus1=p5udm1346.1.2 bus2=p5ulv13259.1.2 switch=n enabled=y phases=2 Linecode=1P_UG_AL_1/0_Brenau_0_416_0_2_2_2_2

New Line.l(r:p5udm1346-p5udt350lv) Units=km Length=0.019770400000000004 bus1=p5udt350lv.1.2 bus2=p5udm1346.1.2 switch=n enabled=y phases=2 Linecode=1P_UG_AL_2/0_Converse_0_416_0_2_2_2_2

New Line.l(r:p5udm1347-p5ulv12310) Units=km Length=0.0176876 bus1=p5udm1347.1.2 bus2=p5ulv12310.1.2 switch=n enabled=y phases=2 Linecode=1P_UG_AL_1/0_Brenau_0_416_0_2_2_2_2

New Line.l(r:p5udm1347-p5udt350lv) Units=km Length=0.0473884 bus1=p5udt350lv.1.2 bus2=p5udm1347.1.2 switch=n enabled=y phases=2 Linecode=1P_UG_AL_1/0_Brenau_0_416_0_2_2_2_2

New Line.l(r:p5udt351lv-p5ulv9826) Units=km Length=0.0127743 bus1=p5udt351lv.1.2 bus2=p5ulv9826.1.2 switch=n enabled=y phases=2 Linecode=1P_UG_AL_1/0_Brenau_0_416_0_2_2_2_2

New Line.l(r:p5udm1350-p5ulv366) Units=km Length=0.018537 bus1=p5udm1350.1.2 bus2=p5ulv366.1.2 switch=n enabled=y phases=2 Linecode=1P_UG_AL_1/0_Brenau_0_416_0_2_2_2_2

New Line.l(r:p5udm1350-p5ulv5952) Units=km Length=0.0183405 bus1=p5udm1350.1.2 bus2=p5ulv5952.1.2 switch=n enabled=y phases=2 Linecode=1P_UG_AL_1/0_Brenau_0_416_0_2_2_2_2

New Line.l(r:p5udm1350-p5udt351lv) Units=km Length=0.00958259 bus1=p5udt351lv.1.2 bus2=p5udm1350.1.2 switch=n enabled=y phases=2 Linecode=1P_UG_AL_2/0_Converse_0_416_0_2_2_2_2

New Line.l(r:p5udm1354-p5ulv18965) Units=km Length=0.019443 bus1=p5udm1354.1.2 bus2=p5ulv18965.1.2 switch=n enabled=y phases=2 Linecode=1P_UG_AL_1/0_Brenau_0_416_0_2_2_2_2

New Line.l(r:p5udm1351-p5ulv5766) Units=km Length=0.0147923 bus1=p5udm1351.1.2 bus2=p5ulv5766.1.2 switch=n enabled=y phases=2 Linecode=1P_UG_AL_1/0_Brenau_0_416_0_2_2_2_2

New Line.l(r:p5udm1351-p5udm1354) Units=km Length=0.0095862 bus1=p5udm1354.1.2 bus2=p5udm1351.1.2 switch=n enabled=y phases=2 Linecode=1P_UG_AL_1/0_Brenau_0_416_0_2_2_2_2

New Line.l(r:p5udm1354-p5udt351lv) Units=km Length=0.00957687 bus1=p5udt351lv.1.2 bus2=p5udm1354.1.2 switch=n enabled=y phases=2 Linecode=1P_UG_AL_4/0_Sweetbriar_0_416_0_2_2_2_2

New Line.l(r:p5udt352lv-p5ulv367) Units=km Length=0.0181054 bus1=p5udt352lv.1.2 bus2=p5ulv367.1.2 switch=n enabled=y phases=2 Linecode=1P_OH_AL_2/0_Rucina_0_416_0_2_2_2_2

New Line.l(r:p5udt352lv-p5ulv20420) Units=km Length=0.0173326 bus1=p5udt352lv.1.2 bus2=p5ulv20420.1.2 switch=n enabled=y phases=2 Linecode=1P_OH_AL_2/0_Rucina_0_416_0_2_2_2_2

New Line.l(r:p5udt360lv-p5ulv78313) Units=km Length=0.00731314 bus1=p5udt360lv.1.2 bus2=p5ulv78313.1.2 switch=n enabled=y phases=2 Linecode=1P_OH_AL_2/0_Rucina_0_416_0_2_2_2_2

New Line.l(r:p5udm1381-p5ulv377) Units=km Length=0.0105099 bus1=p5udm1381.1.2 bus2=p5ulv377.1.2 switch=n enabled=y phases=2 Linecode=1P_OH_AL_2/0_Rucina_0_416_0_2_2_2_2

New Line.l(r:p5udm1381-p5udt360lv) Units=km Length=0.0168353 bus1=p5udt360lv.1.2 bus2=p5udm1381.1.2 switch=n enabled=y phases=2 Linecode=1P_OH_AL_2/0_Rucina_0_416_0_2_2_2_2

New Line.l(r:p5udm1382-p5ulv9691) Units=km Length=0.008478210000000002 bus1=p5udm1382.1.2 bus2=p5ulv9691.1.2 switch=n enabled=y phases=2 Linecode=1P_UG_AL_1/0_Brenau_0_416_0_2_2_2_2

New Line.l(r:p5udm1382-p5udt360lv) Units=km Length=0.0526919 bus1=p5udt360lv.1.2 bus2=p5udm1382.1.2 switch=n enabled=y phases=2 Linecode=1P_OH_AL_4/0_Zuzara_0_416_0_2_2_2_2

New Line.l(r:p5udt363lv-p5ulv10041) Units=km Length=0.0152434 bus1=p5udt363lv.1.2 bus2=p5ulv10041.1.2 switch=n enabled=y phases=2 Linecode=1P_UG_AL_1/0_Brenau_0_416_0_2_2_2_2

New Line.l(r:p5udm1386-p5ulv380) Units=km Length=0.0142856 bus1=p5udm1386.1.2 bus2=p5ulv380.1.2 switch=n enabled=y phases=2 Linecode=1P_UG_AL_1/0_Brenau_0_416_0_2_2_2_2

New Line.l(r:p5udm1386-p5udt363lv) Units=km Length=0.00922944 bus1=p5udt363lv.1.2 bus2=p5udm1386.1.2 switch=n enabled=y phases=2 Linecode=1P_UG_AL_1/0_Brenau_0_416_0_2_2_2_2

New Line.l(r:p5udt557lv-p5ulv8342) Units=km Length=0.0158555 bus1=p5udt557lv.1.2 bus2=p5ulv8342.1.2 switch=n enabled=y phases=2 Linecode=1P_UG_AL_1/0_Brenau_0_416_0_2_2_2_2

New Line.l(r:p5udm2158-p5ulv586) Units=km Length=0.0149752 bus1=p5udm2158.1.2 bus2=p5ulv586.1.2 switch=n enabled=y phases=2 Linecode=1P_UG_AL_1/0_Brenau_0_416_0_2_2_2_2

New Line.l(r:p5udm2158-p5ulv3910) Units=km Length=0.0166808 bus1=p5udm2158.1.2 bus2=p5ulv3910.1.2 switch=n enabled=y phases=2 Linecode=1P_UG_AL_1/0_Brenau_0_416_0_2_2_2_2

New Line.l(r:p5udm2163-p5ulv19152) Units=km Length=0.0138854 bus1=p5udm2163.1.2 bus2=p5ulv19152.1.2 switch=n enabled=y phases=2 Linecode=1P_UG_AL_1/0_Brenau_0_416_0_2_2_2_2

New Line.l(r:p5udm2158-p5udm2163) Units=km Length=0.0732209 bus1=p5udm2158.1.2 bus2=p5udm2163.1.2 switch=n enabled=y phases=2 Linecode=1P_UG_AL_1/0_Brenau_0_416_0_2_2_2_2

New Line.l(r:p5udm2158-p5udt557lv) Units=km Length=0.00944691 bus1=p5udt557lv.1.2 bus2=p5udm2158.1.2 switch=n enabled=y phases=2 Linecode=1P_UG_AL_4/0_Sweetbriar_0_416_0_2_2_2_2

New Line.l(r:p5udm2160-p5ulv8153) Units=km Length=0.015802 bus1=p5udm2160.1.2 bus2=p5ulv8153.1.2 switch=n enabled=y phases=2 Linecode=1P_UG_AL_1/0_Brenau_0_416_0_2_2_2_2

New Line.l(r:p5udm2162-p5ulv11583) Units=km Length=0.0160426 bus1=p5udm2162.1.2 bus2=p5ulv11583.1.2 switch=n enabled=y phases=2 Linecode=1P_UG_AL_1/0_Brenau_0_416_0_2_2_2_2

New Line.l(r:p5udm2160-p5udm2162) Units=km Length=0.0188902 bus1=p5udm2160.1.2 bus2=p5udm2162.1.2 switch=n enabled=y phases=2 Linecode=1P_UG_AL_1/0_Brenau_0_416_0_2_2_2_2

New Line.l(r:p5udm2160-p5udt557lv) Units=km Length=0.00944691 bus1=p5udt557lv.1.2 bus2=p5udm2160.1.2 switch=n enabled=y phases=2 Linecode=1P_UG_AL_1/0_Brenau_0_416_0_2_2_2_2

New Line.l(r:p5udt558lv-p5ulv12503) Units=km Length=0.005663400000000001 bus1=p5udt558lv.1.2 bus2=p5ulv12503.1.2 switch=n enabled=y phases=2 Linecode=1P_OH_AL_2/0_Rucina_0_416_0_2_2_2_2

New Line.l(r:p5udm2164-p5ulv587) Units=km Length=0.00939005 bus1=p5udm2164.1.2 bus2=p5ulv587.1.2 switch=n enabled=y phases=2 Linecode=1P_UG_AL_1/0_Brenau_0_416_0_2_2_2_2

New Line.l(r:p5udm2164-p5udt558lv) Units=km Length=0.0477967 bus1=p5udt558lv.1.2 bus2=p5udm2164.1.2 switch=n enabled=y phases=2 Linecode=1P_OH_AL_4/0_Zuzara_0_416_0_2_2_2_2

New Line.l(r:p5udm2165-p5ulv9821) Units=km Length=0.0131379 bus1=p5udm2165.1.2 bus2=p5ulv9821.1.2 switch=n enabled=y phases=2 Linecode=1P_UG_AL_1/0_Brenau_0_416_0_2_2_2_2

New Line.l(r:p5udm2165-p5udt558lv) Units=km Length=0.102986 bus1=p5udt558lv.1.2 bus2=p5udm2165.1.2 switch=n enabled=y phases=2 Linecode=1P_OH_AL_4/0_Zuzara_0_416_0_2_2_2_2

New Line.l(r:p5udt567lv-p5ulv5194) Units=km Length=0.00924081 bus1=p5udt567lv.1.2 bus2=p5ulv5194.1.2 switch=n enabled=y phases=2 Linecode=1P_UG_AL_1/0_Brenau_0_416_0_2_2_2_2

New Line.l(r:p5udm2198-p5ulv598) Units=km Length=0.00948002 bus1=p5udm2198.1.2 bus2=p5ulv598.1.2 switch=n enabled=y phases=2 Linecode=1P_UG_AL_1/0_Brenau_0_416_0_2_2_2_2

New Line.l(r:p5udm2198-p5ulv78314) Units=km Length=0.00914123 bus1=p5udm2198.1.2 bus2=p5ulv78314.1.2 switch=n enabled=y phases=2 Linecode=1P_UG_AL_1/0_Brenau_0_416_0_2_2_2_2

New Line.l(r:p5udm2201-p5ulv14020) Units=km Length=0.00882701 bus1=p5udm2201.1.2 bus2=p5ulv14020.1.2 switch=n enabled=y phases=2 Linecode=1P_UG_AL_1/0_Brenau_0_416_0_2_2_2_2

New Line.l(r:p5udm2198-p5udm2201) Units=km Length=0.00954891 bus1=p5udm2198.1.2 bus2=p5udm2201.1.2 switch=n enabled=y phases=2 Linecode=1P_UG_AL_1/0_Brenau_0_416_0_2_2_2_2

New Line.l(r:p5udm2198-p5udt567lv) Units=km Length=0.00954322 bus1=p5udt567lv.1.2 bus2=p5udm2198.1.2 switch=n enabled=y phases=2 Linecode=1P_UG_AL_4/0_Sweetbriar_0_416_0_2_2_2_2

New Line.l(r:p5udm2199-p5ulv1133) Units=km Length=0.0123594 bus1=p5udm2199.1.2 bus2=p5ulv1133.1.2 switch=n enabled=y phases=2 Linecode=1P_UG_AL_1/0_Brenau_0_416_0_2_2_2_2

New Line.l(r:p5udm2199-p5ulv18392) Units=km Length=0.010094 bus1=p5udm2199.1.2 bus2=p5ulv18392.1.2 switch=n enabled=y phases=2 Linecode=1P_UG_AL_1/0_Brenau_0_416_0_2_2_2_2

New Line.l(r:p5udm2199-p5udt567lv) Units=km Length=0.0190885 bus1=p5udt567lv.1.2 bus2=p5udm2199.1.2 switch=n enabled=y phases=2 Linecode=1P_UG_AL_2/0_Converse_0_416_0_2_2_2_2

New Line.l(r:p5udt717lv-p5ulv770) Units=km Length=0.0127208 bus1=p5udt717lv.1.2 bus2=p5ulv770.1.2 switch=n enabled=y phases=2 Linecode=1P_UG_AL_1/0_Brenau_0_416_0_2_2_2_2

New Line.l(r:p5udm2752-p5ulv16892) Units=km Length=0.012688400000000002 bus1=p5udm2752.1.2 bus2=p5ulv16892.1.2 switch=n enabled=y phases=2 Linecode=1P_UG_AL_1/0_Brenau_0_416_0_2_2_2_2

New Line.l(r:p5udm2752-p5udt717lv) Units=km Length=0.00897254 bus1=p5udt717lv.1.2 bus2=p5udm2752.1.2 switch=n enabled=y phases=2 Linecode=1P_UG_AL_1/0_Brenau_0_416_0_2_2_2_2

New Line.l(r:p5udt718lv-p5ulv771) Units=km Length=0.0100138 bus1=p5udt718lv.1.2 bus2=p5ulv771.1.2 switch=n enabled=y phases=2 Linecode=1P_OH_AL_2/0_Rucina_0_416_0_2_2_2_2

New Line.l(r:p5udt718lv-p5ulv4442) Units=km Length=0.008492690000000002 bus1=p5udt718lv.1.2 bus2=p5ulv4442.1.2 switch=n enabled=y phases=2 Linecode=1P_OH_AL_2/0_Rucina_0_416_0_2_2_2_2

New Line.l(r:p5udm2756-p5ulv10224) Units=km Length=0.014869800000000002 bus1=p5udm2756.1.2 bus2=p5ulv10224.1.2 switch=n enabled=y phases=2 Linecode=1P_OH_AL_2/0_Rucina_0_416_0_2_2_2_2

New Line.l(r:p5udm2756-p5ulv12704) Units=km Length=0.0171724 bus1=p5udm2756.1.2 bus2=p5ulv12704.1.2 switch=n enabled=y phases=2 Linecode=1P_OH_AL_2/0_Rucina_0_416_0_2_2_2_2

New Line.l(r:p5udm2758-p5ulv18209) Units=km Length=0.01684 bus1=p5udm2758.1.2 bus2=p5ulv18209.1.2 switch=n enabled=y phases=2 Linecode=1P_UG_AL_1/0_Brenau_0_416_0_2_2_2_2

New Line.l(r:p5udm2755-p5ulv772) Units=km Length=0.01519 bus1=p5udm2755.1.2 bus2=p5ulv772.1.2 switch=n enabled=y phases=2 Linecode=1P_UG_AL_1/0_Brenau_0_416_0_2_2_2_2

New Line.l(r:p5udm2755-p5udm2758) Units=km Length=0.0467069 bus1=p5udm2758.1.2 bus2=p5udm2755.1.2 switch=n enabled=y phases=2 Linecode=1P_UG_AL_1/0_Brenau_0_416_0_2_2_2_2

New Line.l(r:p5udm2756-p5udm2758) Units=km Length=0.0416751 bus1=p5udm2756.1.2 bus2=p5udm2758.1.2 switch=n enabled=y phases=2 Linecode=1P_OH_AL_4/0_Zuzara_0_416_0_2_2_2_2

New Line.l(r:p5udm2756-p5udt719lv) Units=km Length=0.018867 bus1=p5udt719lv.1.2 bus2=p5udm2756.1.2 switch=n enabled=y phases=2 Linecode=1P_OH_AL_2/0_Rucina_0_416_0_2_1_2_2_2

New Line.l(r:p5udt720lv-p5ulv14532) Units=km Length=0.00955322 bus1=p5udt720lv.1.2 bus2=p5ulv14532.1.2 switch=n enabled=y phases=2 Linecode=1P_OH_AL_2/0_Rucina_0_416_0_2_2_2_2

New Line.l(r:p5udm2759-p5ulv773) Units=km Length=0.0124271 bus1=p5udm2759.1.2 bus2=p5ulv773.1.2 switch=n enabled=y phases=2 Linecode=1P_OH_AL_2/0_Rucina_0_416_0_2_2_2_2

New Line.l(r:p5udm2759-p5udt720lv) Units=km Length=0.0191688 bus1=p5udt720lv.1.2 bus2=p5udm2759.1.2 switch=n enabled=y phases=2 Linecode=1P_OH_AL_2/0_Rucina_0_416_0_2_2_2_2

New Line.l(r:p5udm2760-p5ulv4977) Units=km Length=0.00910469 bus1=p5udm2760.1.2 bus2=p5ulv4977.1.2 switch=n enabled=y phases=2 Linecode=1P_OH_AL_2/0_Rucina_0_416_0_2_2_2_2

New Line.l(r:p5udm2760-p5ulv6324) Units=km Length=0.00563511 bus1=p5udm2760.1.2 bus2=p5ulv6324.1.2 switch=n enabled=y phases=2 Linecode=1P_OH_AL_2/0_Rucina_0_416_0_2_2_2_2

New Line.l(r:p5udm2760-p5udt720lv) Units=km Length=0.0191724 bus1=p5udt720lv.1.2 bus2=p5udm2760.1.2 switch=n enabled=y phases=2 Linecode=1P_OH_AL_2/0_Rucina_0_416_0_2_2_2_2

New Line.l(r:p5udt721lv-p5ulv774) Units=km Length=0.0136152 bus1=p5udt721lv.1.2 bus2=p5ulv774.1.2 switch=n enabled=y phases=2 Linecode=1P_UG_AL_1/0_Brenau_0_416_0_2_2_2_2

New Line.l(r:p5udt721lv-p5ulv11753) Units=km Length=0.0148365 bus1=p5udt721lv.1.2 bus2=p5ulv11753.1.2 switch=n enabled=y phases=2 Linecode=1P_UG_AL_1/0_Brenau_0_416_0_2_2_2_2

New Line.l(r:p5udt722lv-p5ulv13073) Units=km Length=0.0157592 bus1=p5udt722lv.1.2 bus2=p5ulv13073.1.2 switch=n enabled=y phases=2 Linecode=1P_UG_AL_1/0_Brenau_0_416_0_2_2_2_2

New Line.l(r:p5udm2765-p5ulv775) Units=km Length=0.0147335 bus1=p5udm2765.1.2 bus2=p5ulv775.1.2 switch=n enabled=y phases=2 Linecode=1P_UG_AL_1/0_Brenau_0_416_0_2_2_2_2

New Line.l(r:p5udm2765-p5ulv7428) Units=km Length=0.0166101 bus1=p5udm2765.1.2 bus2=p5ulv7428.1.2 switch=n enabled=y phases=2 Linecode=1P_UG_AL_1/0_Brenau_0_416_0_2_2_2_2

New Line.l(r:p5udm2769-p5ulv15223) Units=km Length=0.010160800000000001 bus1=p5udm2769.1.2 bus2=p5ulv15223.1.2 switch=n enabled=y phases=2 Linecode=1P_UG_AL_1/0_Brenau_0_416_0_2_2_2_2

New Line.l(r:p5udm2765-p5udm2769) Units=km Length=0.0464296 bus1=p5udm2765.1.2 bus2=p5udm2769.1.2 switch=n enabled=y phases=2 Linecode=1P_UG_AL_1/0_Brenau_0_416_0_2_2_2_2

New Line.l(r:p5udm2765-p5udt722lv) Units=km Length=0.00942985 bus1=p5udt722lv.1.2 bus2=p5udm2765.1.2 switch=n enabled=y phases=2 Linecode=1P_UG_AL_4/0_Sweetbriar_0_416_0_2_2_2_2

New Line.l(r:p5udm2766-p5ulv2225) Units=km Length=0.0173939 bus1=p5udm2766.1.2 bus2=p5ulv2225.1.2 switch=n enabled=y phases=2 Linecode=1P_UG_AL_1/0_Brenau_0_416_0_2_2_2_2

New Line.l(r:p5udm2770-p5ulv15618) Units=km Length=0.0148625 bus1=p5udm2770.1.2 bus2=p5ulv15618.1.2 switch=n enabled=y phases=2 Linecode=1P_UG_AL_1/0_Brenau_0_416_0_2_2_2_2
