New Line.l(r:p1udt143lv-p1ulv144) Units=km Length=0.00935868 bus1=p1udt143lv.1.2 bus2=p1ulv144.1.2 switch=n enabled=y phases=2 Linecode=1P_OH_AL_2/0_Rucina_0_416_0_2_2_2_2

New Line.l(r:p1udt144lv-p1ulv23547) Units=km Length=0.0169286 bus1=p1udt144lv.1.2 bus2=p1ulv23547.1.2 switch=n enabled=y phases=2 Linecode=1P_UG_AL_1/0_Brenau_0_416_0_2_2_2_2

New Line.l(r:p1udt144lv-p1ulv50676) Units=km Length=0.0137877 bus1=p1udt144lv.1.2 bus2=p1ulv50676.1.2 switch=n enabled=y phases=2 Linecode=1P_UG_AL_1/0_Brenau_0_416_0_2_2_2_2

New Line.l(r:p1udm455-p1ulv145) Units=km Length=0.0136495 bus1=p1udm455.1.2 bus2=p1ulv145.1.2 switch=n enabled=y phases=2 Linecode=1P_UG_AL_1/0_Brenau_0_416_0_2_2_2_2

New Line.l(r:p1udm455-p1ulv9634) Units=km Length=0.0171174 bus1=p1udm455.1.2 bus2=p1ulv9634.1.2 switch=n enabled=y phases=2 Linecode=1P_UG_AL_1/0_Brenau_0_416_0_2_2_2_2

New Line.l(r:p1udm456-p1ulv147) Units=km Length=0.0172326 bus1=p1udm456.1.2 bus2=p1ulv147.1.2 switch=n enabled=y phases=2 Linecode=1P_UG_AL_1/0_Brenau_0_416_0_2_2_2_2

New Line.l(r:p1udm455-p1udm456) Units=km Length=0.00984279 bus1=p1udm455.1.2 bus2=p1udm456.1.2 switch=n enabled=y phases=2 Linecode=1P_UG_AL_1/0_Brenau_0_416_0_2_2_2_2

New Line.l(r:p1udm455-p1udt144lv) Units=km Length=0.00984279 bus1=p1udt144lv.1.2 bus2=p1udm455.1.2 switch=n enabled=y phases=2 Linecode=1P_UG_AL_4/0_Sweetbriar_0_416_0_2_2_2_2

New Line.l(r:p1udm460-p1ulv64347) Units=km Length=0.0144196 bus1=p1udm460.1.2 bus2=p1ulv64347.1.2 switch=n enabled=y phases=2 Linecode=1P_UG_AL_1/0_Brenau_0_416_0_2_2_2_2

New Line.l(r:p1udm460-p1udt144lv) Units=km Length=0.0492018 bus1=p1udt144lv.1.2 bus2=p1udm460.1.2 switch=n enabled=y phases=2 Linecode=1P_UG_AL_1/0_Brenau_0_416_0_2_2_2_2

New Line.l(r:p1udm463-p1ulv17150) Units=km Length=0.0121827 bus1=p1udm463.1.2 bus2=p1ulv17150.1.2 switch=n enabled=y phases=2 Linecode=1P_UG_AL_1/0_Brenau_0_416_0_2_2_2_2

New Line.l(r:p1udm463-p1ulv43157) Units=km Length=0.0187991 bus1=p1udm463.1.2 bus2=p1ulv43157.1.2 switch=n enabled=y phases=2 Linecode=1P_UG_AL_1/0_Brenau_0_416_0_2_2_2_2

New Line.l(r:p1udm461-p1ulv146) Units=km Length=0.0137926 bus1=p1udm461.1.2 bus2=p1ulv146.1.2 switch=n enabled=y phases=2 Linecode=1P_UG_AL_1/0_Brenau_0_416_0_2_2_2_2

New Line.l(r:p1udm461-p1udm463) Units=km Length=0.0317448 bus1=p1udm463.1.2 bus2=p1udm461.1.2 switch=n enabled=y phases=2 Linecode=1P_UG_AL_1/0_Brenau_0_416_0_2_2_2_2

New Line.l(r:p1udm463-p1udt145lv) Units=km Length=0.00852031 bus1=p1udt145lv.1.2 bus2=p1udm463.1.2 switch=n enabled=y phases=2 Linecode=1P_UG_AL_4/0_Sweetbriar_0_416_0_2_2_2_2

New Line.l(r:p1udm464-p1ulv26722) Units=km Length=0.0116736 bus1=p1udm464.1.2 bus2=p1ulv26722.1.2 switch=n enabled=y phases=2 Linecode=1P_UG_AL_1/0_Brenau_0_416_0_2_2_2_2

New Line.l(r:p1udm462-p1ulv2690) Units=km Length=0.0136836 bus1=p1udm462.1.2 bus2=p1ulv2690.1.2 switch=n enabled=y phases=2 Linecode=1P_UG_AL_1/0_Brenau_0_416_0_2_2_2_2

New Line.l(r:p1udm462-p1udm464) Units=km Length=0.009012240000000001 bus1=p1udm464.1.2 bus2=p1udm462.1.2 switch=n enabled=y phases=2 Linecode=1P_UG_AL_1/0_Brenau_0_416_0_2_2_2_2

New Line.l(r:p1udm464-p1udt145lv) Units=km Length=0.00852031 bus1=p1udt145lv.1.2 bus2=p1udm464.1.2 switch=n enabled=y phases=2 Linecode=1P_UG_AL_4/0_Sweetbriar_0_416_0_2_2_2_2

New Line.l(r:p1udt146lv-p1ulv10859) Units=km Length=0.0168446 bus1=p1udt146lv.1.2 bus2=p1ulv10859.1.2 switch=n enabled=y phases=2 Linecode=1P_UG_AL_1/0_Brenau_0_416_0_2_2_2_2

New Line.l(r:p1udt146lv-p1ulv13380) Units=km Length=0.019353 bus1=p1udt146lv.1.2 bus2=p1ulv13380.1.2 switch=n enabled=y phases=2 Linecode=1P_UG_AL_1/0_Brenau_0_416_0_2_2_2_2

New Line.l(r:p1udm466-p1ulv148) Units=km Length=0.014589000000000001 bus1=p1udm466.1.2 bus2=p1ulv148.1.2 switch=n enabled=y phases=2 Linecode=1P_UG_AL_1/0_Brenau_0_416_0_2_2_2_2

New Line.l(r:p1udm466-p1udt146lv) Units=km Length=0.00924509 bus1=p1udt146lv.1.2 bus2=p1udm466.1.2 switch=n enabled=y phases=2 Linecode=1P_UG_AL_1/0_Brenau_0_416_0_2_2_2_2

New Line.l(r:p1udm469-p1ulv42526) Units=km Length=0.0141117 bus1=p1udm469.1.2 bus2=p1ulv42526.1.2 switch=n enabled=y phases=2 Linecode=1P_UG_AL_1/0_Brenau_0_416_0_2_2_2_2

New Line.l(r:p1udm469-p1ulv56312) Units=km Length=0.0163364 bus1=p1udm469.1.2 bus2=p1ulv56312.1.2 switch=n enabled=y phases=2 Linecode=1P_UG_AL_1/0_Brenau_0_416_0_2_2_2_2

New Line.l(r:p1udm469-p1udt146lv) Units=km Length=0.0183006 bus1=p1udt146lv.1.2 bus2=p1udm469.1.2 switch=n enabled=y phases=2 Linecode=1P_UG_AL_4/0_Sweetbriar_0_416_0_2_2_2_2

New Line.l(r:p1udt151lv-p1ulv153) Units=km Length=0.0300214 bus1=p1udt151lv.1.2 bus2=p1ulv153.1.2 switch=n enabled=y phases=2 Linecode=1P_UG_AL_1/0_Brenau_0_416_0_2_2_2_2

New Line.l(r:p1udm486-p1ulv16497) Units=km Length=0.0316599 bus1=p1udm486.1.2 bus2=p1ulv16497.1.2 switch=n enabled=y phases=2 Linecode=1P_UG_AL_4/0_Sweetbriar_0_416_0_2_2_2_2

New Line.l(r:p1udm486-p1udt151lv) Units=km Length=0.00995864 bus1=p1udt151lv.1.2 bus2=p1udm486.1.2 switch=n enabled=y phases=2 Linecode=1P_UG_AL_4/0_Sweetbriar_0_416_0_2_2_2_2

New Line.l(r:p1udt156lv-p1ulv38775) Units=km Length=0.026904700000000004 bus1=p1udt156lv.1.2 bus2=p1ulv38775.1.2 switch=n enabled=y phases=2 Linecode=1P_UG_AL_1/0_Brenau_0_416_0_2_2_2_2

New Line.l(r:p1udm499-p1ulv158) Units=km Length=0.0169422 bus1=p1udm499.1.2 bus2=p1ulv158.1.2 switch=n enabled=y phases=2 Linecode=1P_UG_AL_1/0_Brenau_0_416_0_2_2_2_2

New Line.l(r:p1udm501-p1ulv28656) Units=km Length=0.0178901 bus1=p1udm501.1.2 bus2=p1ulv28656.1.2 switch=n enabled=y phases=2 Linecode=1P_UG_AL_1/0_Brenau_0_416_0_2_2_2_2

New Line.l(r:p1udm504-p1ulv61165) Units=km Length=0.010647200000000002 bus1=p1udm504.1.2 bus2=p1ulv61165.1.2 switch=n enabled=y phases=2 Linecode=1P_UG_AL_1/0_Brenau_0_416_0_2_2_2_2

New Line.l(r:p1udm501-p1udm504) Units=km Length=0.00948372 bus1=p1udm501.1.2 bus2=p1udm504.1.2 switch=n enabled=y phases=2 Linecode=1P_UG_AL_1/0_Brenau_0_416_0_2_2_2_2

New Line.l(r:p1udm499-p1udm501) Units=km Length=0.00948372 bus1=p1udm499.1.2 bus2=p1udm501.1.2 switch=n enabled=y phases=2 Linecode=1P_UG_AL_4/0_Sweetbriar_0_416_0_2_2_2_2

New Line.l(r:p1udm499-p1udt156lv) Units=km Length=0.00980617 bus1=p1udt156lv.1.2 bus2=p1udm499.1.2 switch=n enabled=y phases=2 Linecode=1P_UG_AL_4/0_Sweetbriar_0_416_0_2_2_2_2

New Line.l(r:p1udm500-p1ulv28012) Units=km Length=0.0171868 bus1=p1udm500.1.2 bus2=p1ulv28012.1.2 switch=n enabled=y phases=2 Linecode=1P_UG_AL_1/0_Brenau_0_416_0_2_2_2_2

New Line.l(r:p1udm503-p1ulv59329) Units=km Length=0.009863510000000002 bus1=p1udm503.1.2 bus2=p1ulv59329.1.2 switch=n enabled=y phases=2 Linecode=1P_UG_AL_1/0_Brenau_0_416_0_2_2_2_2

New Line.l(r:p1udm500-p1udm503) Units=km Length=0.00980617 bus1=p1udm500.1.2 bus2=p1udm503.1.2 switch=n enabled=y phases=2 Linecode=1P_UG_AL_1/0_Brenau_0_416_0_2_2_2_2

New Line.l(r:p1udm500-p1udt156lv) Units=km Length=0.00980617 bus1=p1udt156lv.1.2 bus2=p1udm500.1.2 switch=n enabled=y phases=2 Linecode=1P_UG_AL_2/0_Converse_0_416_0_2_2_2_2

New Line.l(r:p1udt157lv-p1ulv64341) Units=km Length=0.0104812 bus1=p1udt157lv.1.2 bus2=p1ulv64341.1.2 switch=n enabled=y phases=2 Linecode=1P_OH_AL_2/0_Rucina_0_416_0_2_2_2_2

New Line.l(r:p1udm505-p1ulv159) Units=km Length=0.00981954 bus1=p1udm505.1.2 bus2=p1ulv159.1.2 switch=n enabled=y phases=2 Linecode=1P_OH_AL_2/0_Rucina_0_416_0_2_2_2_2

New Line.l(r:p1udm505-p1udt157lv) Units=km Length=0.0228877 bus1=p1udt157lv.1.2 bus2=p1udm505.1.2 switch=n enabled=y phases=2 Linecode=1P_OH_AL_2/0_Rucina_0_416_0_2_2_2_2

New Line.l(r:p1udm506-p1ulv34381) Units=km Length=0.0124736 bus1=p1udm506.1.2 bus2=p1ulv34381.1.2 switch=n enabled=y phases=2 Linecode=1P_OH_AL_2/0_Rucina_0_416_0_2_2_2_2

New Line.l(r:p1udm506-p1udt157lv) Units=km Length=0.015078 bus1=p1udt157lv.1.2 bus2=p1udm506.1.2 switch=n enabled=y phases=2 Linecode=1P_OH_AL_2/0_Rucina_0_416_0_2_2_2_2

New Line.l(r:p1udm508-p1ulv160) Units=km Length=0.0241883 bus1=p1udm508.1.2 bus2=p1ulv160.1.2 switch=n enabled=y phases=2 Linecode=1P_UG_AL_1/0_Brenau_0_416_0_2_2_2_2

New Line.l(r:p1udm508-p1udt158lv) Units=km Length=0.0197844 bus1=p1udt158lv.1.2 bus2=p1udm508.1.2 switch=n enabled=y phases=2 Linecode=1P_UG_AL_1/0_Brenau_0_416_0_2_2_2_2

New Line.l(r:p1udm509-p1ulv16496) Units=km Length=0.0252059 bus1=p1udm509.1.2 bus2=p1ulv16496.1.2 switch=n enabled=y phases=2 Linecode=1P_UG_AL_1/0_Brenau_0_416_0_2_2_2_2

New Line.l(r:p1udm509-p1udt158lv) Units=km Length=0.00989897 bus1=p1udt158lv.1.2 bus2=p1udm509.1.2 switch=n enabled=y phases=2 Linecode=1P_UG_AL_1/0_Brenau_0_416_0_2_2_2_2

New Line.l(r:p1udt159lv-p1ulv1426) Units=km Length=0.014270700000000002 bus1=p1udt159lv.1.2 bus2=p1ulv1426.1.2 switch=n enabled=y phases=2 Linecode=1P_UG_AL_1/0_Brenau_0_416_0_2_2_2_2

New Line.l(r:p1udm513-p1ulv28017) Units=km Length=0.0168664 bus1=p1udm513.1.2 bus2=p1ulv28017.1.2 switch=n enabled=y phases=2 Linecode=1P_UG_AL_1/0_Brenau_0_416_0_2_2_2_2

New Line.l(r:p1udm512-p1ulv15206) Units=km Length=0.0140839 bus1=p1udm512.1.2 bus2=p1ulv15206.1.2 switch=n enabled=y phases=2 Linecode=1P_UG_AL_1/0_Brenau_0_416_0_2_2_2_2

New Line.l(r:p1udm510-p1ulv161) Units=km Length=0.0146645 bus1=p1udm510.1.2 bus2=p1ulv161.1.2 switch=n enabled=y phases=2 Linecode=1P_UG_AL_1/0_Brenau_0_416_0_2_2_2_2

New Line.l(r:p1udm510-p1udm512) Units=km Length=0.00940205 bus1=p1udm512.1.2 bus2=p1udm510.1.2 switch=n enabled=y phases=2 Linecode=1P_UG_AL_1/0_Brenau_0_416_0_2_2_2_2

New Line.l(r:p1udm512-p1udm513) Units=km Length=0.00940205 bus1=p1udm513.1.2 bus2=p1udm512.1.2 switch=n enabled=y phases=2 Linecode=1P_UG_AL_4/0_Sweetbriar_0_416_0_2_2_2_2

New Line.l(r:p1udm513-p1udt159lv) Units=km Length=0.00939741 bus1=p1udt159lv.1.2 bus2=p1udm513.1.2 switch=n enabled=y phases=2 Linecode=1P_UG_AL_4/0_Sweetbriar_0_416_0_2_2_2_2

New Line.l(r:p1udm514-p1ulv38134) Units=km Length=0.014778900000000001 bus1=p1udm514.1.2 bus2=p1ulv38134.1.2 switch=n enabled=y phases=2 Linecode=1P_UG_AL_1/0_Brenau_0_416_0_2_2_2_2

New Line.l(r:p1udm514-p1ulv59919) Units=km Length=0.0162201 bus1=p1udm514.1.2 bus2=p1ulv59919.1.2 switch=n enabled=y phases=2 Linecode=1P_UG_AL_1/0_Brenau_0_416_0_2_2_2_2

New Line.l(r:p1udm514-p1udt159lv) Units=km Length=0.0183545 bus1=p1udt159lv.1.2 bus2=p1udm514.1.2 switch=n enabled=y phases=2 Linecode=1P_UG_AL_4/0_Sweetbriar_0_416_0_2_2_2_2

New Line.l(r:p1udt160lv-p1ulv162) Units=km Length=0.0235584 bus1=p1udt160lv.1.2 bus2=p1ulv162.1.2 switch=n enabled=y phases=2 Linecode=1P_UG_AL_1/0_Brenau_0_416_0_2_2_2_2

New Line.l(r:p1udt160lv-p1ulv7145) Units=km Length=0.0285208 bus1=p1udt160lv.1.2 bus2=p1ulv7145.1.2 switch=n enabled=y phases=2 Linecode=1P_UG_AL_1/0_Brenau_0_416_0_2_2_2_2

New Line.l(r:p1udt160lv-p1ulv53219) Units=km Length=0.0273058 bus1=p1udt160lv.1.2 bus2=p1ulv53219.1.2 switch=n enabled=y phases=2 Linecode=1P_UG_AL_1/0_Brenau_0_416_0_2_2_2_2

New Line.l(r:p1udt160lv-p1ulv55107) Units=km Length=0.0343332 bus1=p1udt160lv.1.2 bus2=p1ulv55107.1.2 switch=n enabled=y phases=2 Linecode=1P_UG_AL_1/0_Brenau_0_416_0_2_2_2_2

New Line.l(r:p1udt230lv-p1ulv31196) Units=km Length=0.014397 bus1=p1udt230lv.1.2 bus2=p1ulv31196.1.2 switch=n enabled=y phases=2 Linecode=1P_UG_AL_1/0_Brenau_0_416_0_2_2_2_2

New Line.l(r:p1udt230lv-p1ulv38852) Units=km Length=0.0156019 bus1=p1udt230lv.1.2 bus2=p1ulv38852.1.2 switch=n enabled=y phases=2 Linecode=1P_UG_AL_1/0_Brenau_0_416_0_2_2_2_2

New Line.l(r:p1udm783-p1ulv8461) Units=km Length=0.015146400000000003 bus1=p1udm783.1.2 bus2=p1ulv8461.1.2 switch=n enabled=y phases=2 Linecode=1P_UG_AL_1/0_Brenau_0_416_0_2_2_2_2

New Line.l(r:p1udm782-p1ulv233) Units=km Length=0.0152731 bus1=p1udm782.1.2 bus2=p1ulv233.1.2 switch=n enabled=y phases=2 Linecode=1P_UG_AL_1/0_Brenau_0_416_0_2_2_2_2

New Line.l(r:p1udm782-p1udm783) Units=km Length=0.00967788 bus1=p1udm783.1.2 bus2=p1udm782.1.2 switch=n enabled=y phases=2 Linecode=1P_UG_AL_1/0_Brenau_0_416_0_2_2_2_2

New Line.l(r:p1udm783-p1udt230lv) Units=km Length=0.00968075 bus1=p1udt230lv.1.2 bus2=p1udm783.1.2 switch=n enabled=y phases=2 Linecode=1P_UG_AL_4/0_Sweetbriar_0_416_0_2_2_2_2

New Line.l(r:p1udm784-p1ulv11547) Units=km Length=0.0160363 bus1=p1udm784.1.2 bus2=p1ulv11547.1.2 switch=n enabled=y phases=2 Linecode=1P_UG_AL_1/0_Brenau_0_416_0_2_2_2_2

New Line.l(r:p1udm784-p1ulv16569) Units=km Length=0.016339600000000003 bus1=p1udm784.1.2 bus2=p1ulv16569.1.2 switch=n enabled=y phases=2 Linecode=1P_UG_AL_1/0_Brenau_0_416_0_2_2_2_2

New Line.l(r:p1udm784-p1udt230lv) Units=km Length=0.0193462 bus1=p1udt230lv.1.2 bus2=p1udm784.1.2 switch=n enabled=y phases=2 Linecode=1P_UG_AL_4/0_Sweetbriar_0_416_0_2_2_2_2

New Line.l(r:p1udt231lv-p1ulv30583) Units=km Length=0.0109165 bus1=p1udt231lv.1.2 bus2=p1ulv30583.1.2 switch=n enabled=y phases=2 Linecode=1P_UG_AL_1/0_Brenau_0_416_0_2_2_2_2

New Line.l(r:p1udm788-p1ulv234) Units=km Length=0.0172769 bus1=p1udm788.1.2 bus2=p1ulv234.1.2 switch=n enabled=y phases=2 Linecode=1P_UG_AL_1/0_Brenau_0_416_0_2_2_2_2

New Line.l(r:p1udm792-p1ulv43897) Units=km Length=0.0173458 bus1=p1udm792.1.2 bus2=p1ulv43897.1.2 switch=n enabled=y phases=2 Linecode=1P_UG_AL_1/0_Brenau_0_416_0_2_2_2_2

New Line.l(r:p1udm789-p1ulv12802) Units=km Length=0.0166243 bus1=p1udm789.1.2 bus2=p1ulv12802.1.2 switch=n enabled=y phases=2 Linecode=1P_UG_AL_1/0_Brenau_0_416_0_2_2_2_2

New Line.l(r:p1udm789-p1udm792) Units=km Length=0.00829247 bus1=p1udm792.1.2 bus2=p1udm789.1.2 switch=n enabled=y phases=2 Linecode=1P_UG_AL_1/0_Brenau_0_416_0_2_2_2_2

New Line.l(r:p1udm788-p1udm792) Units=km Length=0.009818290000000002 bus1=p1udm788.1.2 bus2=p1udm792.1.2 switch=n enabled=y phases=2 Linecode=1P_UG_AL_4/0_Sweetbriar_0_416_0_2_2_2_2

New Line.l(r:p1udm788-p1udt231lv) Units=km Length=0.00981315 bus1=p1udt231lv.1.2 bus2=p1udm788.1.2 switch=n enabled=y phases=2 Linecode=1P_UG_AL_4/0_Sweetbriar_0_416_0_2_2_2_2

New Line.l(r:p1udm790-p1ulv17215) Units=km Length=0.0167534 bus1=p1udm790.1.2 bus2=p1ulv17215.1.2 switch=n enabled=y phases=2 Linecode=1P_UG_AL_1/0_Brenau_0_416_0_2_2_2_2

New Line.l(r:p1udm790-p1udt231lv) Units=km Length=0.0400794 bus1=p1udt231lv.1.2 bus2=p1udm790.1.2 switch=n enabled=y phases=2 Linecode=1P_UG_AL_1/0_Brenau_0_416_0_2_2_2_2

New Line.l(r:p1udt362lv-p1ulv365) Units=km Length=0.0151959 bus1=p1udt362lv.1.2 bus2=p1ulv365.1.2 switch=n enabled=y phases=2 Linecode=1P_OH_AL_2/0_Rucina_0_416_0_2_2_2_2

New Line.l(r:p1udt362lv-p1ulv42127) Units=km Length=0.014834300000000002 bus1=p1udt362lv.1.2 bus2=p1ulv42127.1.2 switch=n enabled=y phases=2 Linecode=1P_OH_AL_2/0_Rucina_0_416_0_2_2_2_2

New Line.l(r:p1udt783lv-p1ulv793) Units=km Length=0.0231705 bus1=p1udt783lv.1.2 bus2=p1ulv793.1.2 switch=n enabled=y phases=2 Linecode=1P_UG_AL_1/0_Brenau_0_416_0_2_2_2_2

New Line.l(r:p1udt783lv-p1ulv5847) Units=km Length=0.0266542 bus1=p1udt783lv.1.2 bus2=p1ulv5847.1.2 switch=n enabled=y phases=2 Linecode=1P_UG_AL_1/0_Brenau_0_416_0_2_2_2_2

New Line.l(r:p1udt783lv-p1ulv21650) Units=km Length=0.0287873 bus1=p1udt783lv.1.2 bus2=p1ulv21650.1.2 switch=n enabled=y phases=2 Linecode=1P_UG_AL_1/0_Brenau_0_416_0_2_2_2_2

New Line.l(r:p1udt783lv-p1ulv21651) Units=km Length=0.0244992 bus1=p1udt783lv.1.2 bus2=p1ulv21651.1.2 switch=n enabled=y phases=2 Linecode=1P_UG_AL_1/0_Brenau_0_416_0_2_2_2_2

New Line.l(r:p1udt783lv-p1ulv51921) Units=km Length=0.0263106 bus1=p1udt783lv.1.2 bus2=p1ulv51921.1.2 switch=n enabled=y phases=2 Linecode=1P_UG_AL_1/0_Brenau_0_416_0_2_2_2_2

New Line.l(r:p1udt784lv-p1ulv35648) Units=km Length=0.0168961 bus1=p1udt784lv.1.2 bus2=p1ulv35648.1.2 switch=n enabled=y phases=2 Linecode=1P_UG_AL_1/0_Brenau_0_416_0_2_2_2_2

New Line.l(r:p1udm2853-p1ulv34375) Units=km Length=0.00878253 bus1=p1udm2853.1.2 bus2=p1ulv34375.1.2 switch=n enabled=y phases=2 Linecode=1P_UG_AL_1/0_Brenau_0_416_0_2_2_2_2

New Line.l(r:p1udm2852-p1ulv26724) Units=km Length=0.0213524 bus1=p1udm2852.1.2 bus2=p1ulv26724.1.2 switch=n enabled=y phases=2 Linecode=1P_UG_AL_1/0_Brenau_0_416_0_2_2_2_2

New Line.l(r:p1udm2852-p1udm2853) Units=km Length=0.00990129 bus1=p1udm2853.1.2 bus2=p1udm2852.1.2 switch=n enabled=y phases=2 Linecode=1P_UG_AL_1/0_Brenau_0_416_0_2_2_2_2

New Line.l(r:p1udm2853-p1udt784lv) Units=km Length=0.00991013 bus1=p1udt784lv.1.2 bus2=p1udm2853.1.2 switch=n enabled=y phases=2 Linecode=1P_UG_AL_4/0_Sweetbriar_0_416_0_2_2_2_2

New Line.l(r:p1udm2855-p1ulv63076) Units=km Length=0.0185143 bus1=p1udm2855.1.2 bus2=p1ulv63076.1.2 switch=n enabled=y phases=2 Linecode=1P_UG_AL_1/0_Brenau_0_416_0_2_2_2_2

New Line.l(r:p1udm2851-p1ulv794) Units=km Length=0.00930102 bus1=p1udm2851.1.2 bus2=p1ulv794.1.2 switch=n enabled=y phases=2 Linecode=1P_UG_AL_1/0_Brenau_0_416_0_2_2_2_2

New Line.l(r:p1udm2851-p1udm2855) Units=km Length=0.00997296 bus1=p1udm2855.1.2 bus2=p1udm2851.1.2 switch=n enabled=y phases=2 Linecode=1P_UG_AL_1/0_Brenau_0_416_0_2_2_2_2

New Line.l(r:p1udm2855-p1udt784lv) Units=km Length=0.009968440000000002 bus1=p1udt784lv.1.2 bus2=p1udm2855.1.2 switch=n enabled=y phases=2 Linecode=1P_UG_AL_4/0_Sweetbriar_0_416_0_2_2_2_2

New Line.l(r:p1udm2856-p1ulv795) Units=km Length=0.014583 bus1=p1udm2856.1.2 bus2=p1ulv795.1.2 switch=n enabled=y phases=2 Linecode=1P_UG_AL_1/0_Brenau_0_416_0_2_2_2_2

New Line.l(r:p1udm2856-p1udt785lv) Units=km Length=0.0195164 bus1=p1udt785lv.1.2 bus2=p1udm2856.1.2 switch=n enabled=y phases=2 Linecode=1P_UG_AL_1/0_Brenau_0_416_0_2_2_2_2

New Line.l(r:p1udm2857-p1ulv2079) Units=km Length=0.0141099 bus1=p1udm2857.1.2 bus2=p1ulv2079.1.2 switch=n enabled=y phases=2 Linecode=1P_UG_AL_1/0_Brenau_0_416_0_2_2_2_2

New Line.l(r:p1udm2857-p1ulv22242) Units=km Length=0.013631800000000001 bus1=p1udm2857.1.2 bus2=p1ulv22242.1.2 switch=n enabled=y phases=2 Linecode=1P_UG_AL_1/0_Brenau_0_416_0_2_2_2_2

New Line.l(r:p1udm2857-p1udt785lv) Units=km Length=0.0097607 bus1=p1udt785lv.1.2 bus2=p1udm2857.1.2 switch=n enabled=y phases=2 Linecode=1P_UG_AL_4/0_Sweetbriar_0_416_0_2_2_2_2

New Line.l(r:p1udt786lv-p1ulv796) Units=km Length=0.0148598 bus1=p1udt786lv.1.2 bus2=p1ulv796.1.2 switch=n enabled=y phases=2 Linecode=1P_UG_AL_4/0_Sweetbriar_0_416_0_2_2_2_2

New Line.l(r:p1udt790lv-p1ulv800) Units=km Length=0.00956548 bus1=p1udt790lv.1.2 bus2=p1ulv800.1.2 switch=n enabled=y phases=2 Linecode=1P_OH_AL_2/0_Rucina_0_416_0_2_2_2_2

New Line.l(r:p1udt841lv-p1ulv4051) Units=km Length=0.012265000000000002 bus1=p1udt841lv.1.2 bus2=p1ulv4051.1.2 switch=n enabled=y phases=2 Linecode=1P_UG_AL_1/0_Brenau_0_416_0_2_2_2_2

New Line.l(r:p1udm3063-p1ulv853) Units=km Length=0.0132641 bus1=p1udm3063.1.2 bus2=p1ulv853.1.2 switch=n enabled=y phases=2 Linecode=1P_UG_AL_1/0_Brenau_0_416_0_2_2_2_2

New Line.l(r:p1udm3066-p1ulv24896) Units=km Length=0.0173987 bus1=p1udm3066.1.2 bus2=p1ulv24896.1.2 switch=n enabled=y phases=2 Linecode=1P_UG_AL_1/0_Brenau_0_416_0_2_2_2_2

New Line.l(r:p1udm3063-p1udm3066) Units=km Length=0.012773200000000002 bus1=p1udm3063.1.2 bus2=p1udm3066.1.2 switch=n enabled=y phases=2 Linecode=1P_UG_AL_1/0_Brenau_0_416_0_2_2_2_2

New Line.l(r:p1udm3063-p1udt841lv) Units=km Length=0.0142179 bus1=p1udt841lv.1.2 bus2=p1udm3063.1.2 switch=n enabled=y phases=2 Linecode=1P_UG_AL_4/0_Sweetbriar_0_416_0_2_2_2_2

New Line.l(r:p1udm3065-p1ulv13441) Units=km Length=0.015597 bus1=p1udm3065.1.2 bus2=p1ulv13441.1.2 switch=n enabled=y phases=2 Linecode=1P_UG_AL_1/0_Brenau_0_416_0_2_2_2_2

New Line.l(r:p1udm3065-p1udt841lv) Units=km Length=0.0336195 bus1=p1udt841lv.1.2 bus2=p1udm3065.1.2 switch=n enabled=y phases=2 Linecode=1P_UG_AL_1/0_Brenau_0_416_0_2_2_2_2

New Line.l(r:p1udt842lv-p1ulv854) Units=km Length=0.018872400000000004 bus1=p1udt842lv.1.2 bus2=p1ulv854.1.2 switch=n enabled=y phases=2 Linecode=1P_OH_AL_2/0_Rucina_0_416_0_2_2_2_2

New Line.l(r:p1udt842lv-p1ulv61228) Units=km Length=0.0179529 bus1=p1udt842lv.1.2 bus2=p1ulv61228.1.2 switch=n enabled=y phases=2 Linecode=1P_OH_AL_2/0_Rucina_0_416_0_2_2_2_2

New Line.l(r:p1udm3068-p1ulv12199) Units=km Length=0.0189287 bus1=p1udm3068.1.2 bus2=p1ulv12199.1.2 switch=n enabled=y phases=2 Linecode=1P_OH_AL_2/0_Rucina_0_416_0_2_2_2_2

New Line.l(r:p1udm3068-p1ulv28090) Units=km Length=0.0188102 bus1=p1udm3068.1.2 bus2=p1ulv28090.1.2 switch=n enabled=y phases=2 Linecode=1P_OH_AL_2/0_Rucina_0_416_0_2_2_2_2

New Line.l(r:p1udm3068-p1udt842lv) Units=km Length=0.0186211 bus1=p1udt842lv.1.2 bus2=p1udm3068.1.2 switch=n enabled=y phases=2 Linecode=1P_OH_AL_2/0_Rucina_0_416_0_2_2_2_2

New Line.l(r:p1udm3070-p1ulv48919) Units=km Length=0.019024900000000004 bus1=p1udm3070.1.2 bus2=p1ulv48919.1.2 switch=n enabled=y phases=2 Linecode=1P_OH_AL_2/0_Rucina_0_416_0_2_2_2_2

New Line.l(r:p1udm3070-p1ulv50752) Units=km Length=0.0171866 bus1=p1udm3070.1.2 bus2=p1ulv50752.1.2 switch=n enabled=y phases=2 Linecode=1P_OH_AL_2/0_Rucina_0_416_0_2_2_2_2

New Line.l(r:p1udm3070-p1udt842lv) Units=km Length=0.0186211 bus1=p1udt842lv.1.2 bus2=p1udm3070.1.2 switch=n enabled=y phases=2 Linecode=1P_OH_AL_2/0_Rucina_0_416_0_2_2_2_2

New Line.l(r:p1udt843lv-p1ulv855) Units=km Length=0.00948275 bus1=p1udt843lv.1.2 bus2=p1ulv855.1.2 switch=n enabled=y phases=2 Linecode=1P_OH_AL_2/0_Rucina_0_416_0_2_2_2_2

New Line.l(r:p1udt843lv-p1ulv53283) Units=km Length=0.0128148 bus1=p1udt843lv.1.2 bus2=p1ulv53283.1.2 switch=n enabled=y phases=2 Linecode=1P_OH_AL_2/0_Rucina_0_416_0_2_2_2_2

New Line.l(r:p1udt845lv-p1ulv56910) Units=km Length=0.0129515 bus1=p1udt845lv.1.2 bus2=p1ulv56910.1.2 switch=n enabled=y phases=2 Linecode=1P_UG_AL_1/0_Brenau_0_416_0_2_2_2_2

New Line.l(r:p1udm3078-p1ulv24821) Units=km Length=0.0164092 bus1=p1udm3078.1.2 bus2=p1ulv24821.1.2 switch=n enabled=y phases=2 Linecode=1P_UG_AL_1/0_Brenau_0_416_0_2_2_2_2

New Line.l(r:p1udm3081-p1ulv45747) Units=km Length=0.0160723 bus1=p1udm3081.1.2 bus2=p1ulv45747.1.2 switch=n enabled=y phases=2 Linecode=1P_UG_AL_1/0_Brenau_0_416_0_2_2_2_2

New Line.l(r:p1udm3078-p1udm3081) Units=km Length=0.052375 bus1=p1udm3078.1.2 bus2=p1udm3081.1.2 switch=n enabled=y phases=2 Linecode=1P_UG_AL_1/0_Brenau_0_416_0_2_2_2_2

New Line.l(r:p1udm3078-p1udt845lv) Units=km Length=0.00929383 bus1=p1udt845lv.1.2 bus2=p1udm3078.1.2 switch=n enabled=y phases=2 Linecode=1P_UG_AL_4/0_Sweetbriar_0_416_0_2_2_2_2

New Line.l(r:p1udm3080-p1ulv35001) Units=km Length=0.0160017 bus1=p1udm3080.1.2 bus2=p1ulv35001.1.2 switch=n enabled=y phases=2 Linecode=1P_UG_AL_1/0_Brenau_0_416_0_2_2_2_2

New Line.l(r:p1udm3079-p1ulv28716) Units=km Length=0.0154406 bus1=p1udm3079.1.2 bus2=p1ulv28716.1.2 switch=n enabled=y phases=2 Linecode=1P_UG_AL_1/0_Brenau_0_416_0_2_2_2_2

New Line.l(r:p1udm3077-p1ulv857) Units=km Length=0.014654800000000003 bus1=p1udm3077.1.2 bus2=p1ulv857.1.2 switch=n enabled=y phases=2 Linecode=1P_UG_AL_1/0_Brenau_0_416_0_2_2_2_2

New Line.l(r:p1udm3077-p1udm3079) Units=km Length=0.00928421 bus1=p1udm3079.1.2 bus2=p1udm3077.1.2 switch=n enabled=y phases=2 Linecode=1P_UG_AL_1/0_Brenau_0_416_0_2_2_2_2

New Line.l(r:p1udm3079-p1udm3080) Units=km Length=0.009296560000000002 bus1=p1udm3080.1.2 bus2=p1udm3079.1.2 switch=n enabled=y phases=2 Linecode=1P_UG_AL_4/0_Sweetbriar_0_416_0_2_2_2_2

New Line.l(r:p1udm3080-p1udt845lv) Units=km Length=0.009296560000000002 bus1=p1udt845lv.1.2 bus2=p1udm3080.1.2 switch=n enabled=y phases=2 Linecode=1P_UG_AL_4/0_Sweetbriar_0_416_0_2_2_2_2

New Line.l(r:p1udt1364lv-p1ulv1409) Units=km Length=0.0386018 bus1=p1udt1364lv.1.2 bus2=p1ulv1409.1.2 switch=n enabled=y phases=2 Linecode=1P_OH_AL_4/0_Zuzara_0_416_0_2_2_2_2

New Line.l(r:p1udm4978-p1ulv7123) Units=km Length=0.0106295 bus1=p1udm4978.1.2 bus2=p1ulv7123.1.2 switch=n enabled=y phases=2 Linecode=1P_OH_AL_2/0_Rucina_0_416_0_2_2_2_2

New Line.l(r:p1udm4978-p1udt1364lv) Units=km Length=0.0182786 bus1=p1udt1364lv.1.2 bus2=p1udm4978.1.2 switch=n enabled=y phases=2 Linecode=1P_OH_AL_2/0_Rucina_0_416_0_2_2_2_2

New Line.l(r:p1udt1371lv-p1ulv1416) Units=km Length=0.0439606 bus1=p1udt1371lv.1.2 bus2=p1ulv1416.1.2 switch=n enabled=y phases=2 Linecode=1P_UG_AL_4/0_Sweetbriar_0_416_0_2_2_2_2

New Line.l(r:p1udt1372lv-p1ulv1417) Units=km Length=0.0186791 bus1=p1udt1372lv.1.2 bus2=p1ulv1417.1.2 switch=n enabled=y phases=2 Linecode=1P_UG_AL_1/0_Brenau_0_416_0_2_2_2_2

New Line.l(r:p1udm5008-p1ulv22241) Units=km Length=0.017835 bus1=p1udm5008.1.2 bus2=p1ulv22241.1.2 switch=n enabled=y phases=2 Linecode=1P_UG_AL_1/0_Brenau_0_416_0_2_2_2_2

New Line.l(r:p1udm5009-p1ulv32389) Units=km Length=0.0184549 bus1=p1udm5009.1.2 bus2=p1ulv32389.1.2 switch=n enabled=y phases=2 Linecode=1P_UG_AL_1/0_Brenau_0_416_0_2_2_2_2

New Line.l(r:p1udm5008-p1udm5009) Units=km Length=0.0247805 bus1=p1udm5008.1.2 bus2=p1udm5009.1.2 switch=n enabled=y phases=2 Linecode=1P_UG_AL_1/0_Brenau_0_416_0_2_2_2_2

New Line.l(r:p1udm5008-p1udt1372lv) Units=km Length=0.00781745 bus1=p1udt1372lv.1.2 bus2=p1udm5008.1.2 switch=n enabled=y phases=2 Linecode=1P_UG_AL_4/0_Sweetbriar_0_416_0_2_2_2_2

New Line.l(r:p1udm5010-p1ulv48846) Units=km Length=0.0162226 bus1=p1udm5010.1.2 bus2=p1ulv48846.1.2 switch=n enabled=y phases=2 Linecode=1P_UG_AL_1/0_Brenau_0_416_0_2_2_2_2

New Line.l(r:p1udm5010-p1udt1372lv) Units=km Length=0.0505007 bus1=p1udt1372lv.1.2 bus2=p1udm5010.1.2 switch=n enabled=y phases=2 Linecode=1P_UG_AL_1/0_Brenau_0_416_0_2_2_2_2

New Line.l(r:p1udt1377lv-p1ulv1422) Units=km Length=0.0518041 bus1=p1udt1377lv.1.2 bus2=p1ulv1422.1.2 switch=n enabled=y phases=2 Linecode=1P_UG_AL_1/0_Brenau_0_416_0_2_2_2_2

New Line.l(r:p1udt1377lv-p1ulv18425) Units=km Length=0.027982600000000003 bus1=p1udt1377lv.1.2 bus2=p1ulv18425.1.2 switch=n enabled=y phases=2 Linecode=1P_UG_AL_1/0_Brenau_0_416_0_2_2_2_2

New Line.l(r:p1udt1377lv-p1ulv63080) Units=km Length=0.0251026 bus1=p1udt1377lv.1.2 bus2=p1ulv63080.1.2 switch=n enabled=y phases=2 Linecode=1P_UG_AL_1/0_Brenau_0_416_0_2_2_2_2

New Line.l(r:p1udm5024-p1ulv10865) Units=km Length=0.0245277 bus1=p1udm5024.1.2 bus2=p1ulv10865.1.2 switch=n enabled=y phases=2 Linecode=1P_UG_AL_1/0_Brenau_0_416_0_2_2_2_2

New Line.l(r:p1udm5024-p1udt1377lv) Units=km Length=0.00814328 bus1=p1udt1377lv.1.2 bus2=p1udm5024.1.2 switch=n enabled=y phases=2 Linecode=1P_UG_AL_1/0_Brenau_0_416_0_2_2_2_2

New Line.l(r:p1udt1378lv-p1ulv1423) Units=km Length=0.0139678 bus1=p1udt1378lv.1.2 bus2=p1ulv1423.1.2 switch=n enabled=y phases=2 Linecode=1P_OH_AL_2/0_Rucina_0_416_0_2_2_2_2

New Line.l(r:p1udm5028-p1ulv2090) Units=km Length=0.0160914 bus1=p1udm5028.1.2 bus2=p1ulv2090.1.2 switch=n enabled=y phases=2 Linecode=1P_OH_AL_2/0_Rucina_0_416_0_2_2_2_2

New Line.l(r:p1udm5028-p1ulv2700) Units=km Length=0.010526 bus1=p1udm5028.1.2 bus2=p1ulv2700.1.2 switch=n enabled=y phases=2 Linecode=1P_OH_AL_2/0_Rucina_0_416_0_2_2_2_2

New Line.l(r:p1udm5028-p1udt1378lv) Units=km Length=0.0198921 bus1=p1udt1378lv.1.2 bus2=p1udm5028.1.2 switch=n enabled=y phases=2 Linecode=1P_OH_AL_2/0_Rucina_0_416_0_2_2_2_2

New Line.l(r:p1udt1379lv-p1ulv1424) Units=km Length=0.023891 bus1=p1udt1379lv.1.2 bus2=p1ulv1424.1.2 switch=n enabled=y phases=2 Linecode=1P_UG_AL_1/0_Brenau_0_416_0_2_2_2_2

New Line.l(r:p1udt1379lv-p1ulv3370) Units=km Length=0.0259382 bus1=p1udt1379lv.1.2 bus2=p1ulv3370.1.2 switch=n enabled=y phases=2 Linecode=1P_UG_AL_1/0_Brenau_0_416_0_2_2_2_2

New Line.l(r:p1udt1379lv-p1ulv19093) Units=km Length=0.0238743 bus1=p1udt1379lv.1.2 bus2=p1ulv19093.1.2 switch=n enabled=y phases=2 Linecode=1P_UG_AL_1/0_Brenau_0_416_0_2_2_2_2

New Line.l(r:p1udt1379lv-p1ulv44452) Units=km Length=0.0254111 bus1=p1udt1379lv.1.2 bus2=p1ulv44452.1.2 switch=n enabled=y phases=2 Linecode=1P_UG_AL_1/0_Brenau_0_416_0_2_2_2_2

New Line.l(r:p1udt1379lv-p1ulv59916) Units=km Length=0.025218600000000004 bus1=p1udt1379lv.1.2 bus2=p1ulv59916.1.2 switch=n enabled=y phases=2 Linecode=1P_UG_AL_1/0_Brenau_0_416_0_2_2_2_2

New Line.l(r:p1udt1380lv-p1ulv56909) Units=km Length=0.0162907 bus1=p1udt1380lv.1.2 bus2=p1ulv56909.1.2 switch=n enabled=y phases=2 Linecode=1P_UG_AL_1/0_Brenau_0_416_0_2_2_2_2

New Line.l(r:p1udt1380lv-p1ulv62419) Units=km Length=0.012021600000000002 bus1=p1udt1380lv.1.2 bus2=p1ulv62419.1.2 switch=n enabled=y phases=2 Linecode=1P_UG_AL_1/0_Brenau_0_416_0_2_2_2_2

New Line.l(r:p1udm5035-p1ulv1425) Units=km Length=0.0162693 bus1=p1udm5035.1.2 bus2=p1ulv1425.1.2 switch=n enabled=y phases=2 Linecode=1P_UG_AL_1/0_Brenau_0_416_0_2_2_2_2

New Line.l(r:p1udm5035-p1udt1380lv) Units=km Length=0.00928807 bus1=p1udt1380lv.1.2 bus2=p1udm5035.1.2 switch=n enabled=y phases=2 Linecode=1P_UG_AL_1/0_Brenau_0_416_0_2_2_2_2

New Line.l(r:p1udm5036-p1ulv17769) Units=km Length=0.0168723 bus1=p1udm5036.1.2 bus2=p1ulv17769.1.2 switch=n enabled=y phases=2 Linecode=1P_UG_AL_1/0_Brenau_0_416_0_2_2_2_2

New Line.l(r:p1udm5036-p1udt1380lv) Units=km Length=0.009290970000000003 bus1=p1udt1380lv.1.2 bus2=p1udm5036.1.2 switch=n enabled=y phases=2 Linecode=1P_UG_AL_1/0_Brenau_0_416_0_2_2_2_2

New Line.l(r:p1udt1381lv-p1ulv1427) Units=km Length=0.0238595 bus1=p1udt1381lv.1.2 bus2=p1ulv1427.1.2 switch=n enabled=y phases=2 Linecode=1P_UG_AL_1/0_Brenau_0_416_0_2_2_2_2

New Line.l(r:p1udt1381lv-p1ulv17161) Units=km Length=0.0247492 bus1=p1udt1381lv.1.2 bus2=p1ulv17161.1.2 switch=n enabled=y phases=2 Linecode=1P_UG_AL_1/0_Brenau_0_416_0_2_2_2_2

New Line.l(r:p1udt1381lv-p1ulv35662) Units=km Length=0.0249574 bus1=p1udt1381lv.1.2 bus2=p1ulv35662.1.2 switch=n enabled=y phases=2 Linecode=1P_UG_AL_1/0_Brenau_0_416_0_2_2_2_2

New Line.l(r:p1udt1381lv-p1ulv43821) Units=km Length=0.0247705 bus1=p1udt1381lv.1.2 bus2=p1ulv43821.1.2 switch=n enabled=y phases=2 Linecode=1P_UG_AL_1/0_Brenau_0_416_0_2_2_2_2

New Line.l(r:p1udt1381lv-p1ulv55110) Units=km Length=0.0260325 bus1=p1udt1381lv.1.2 bus2=p1ulv55110.1.2 switch=n enabled=y phases=2 Linecode=1P_UG_AL_1/0_Brenau_0_416_0_2_2_2_2

New Line.l(r:p1udm5044-p1ulv1428) Units=km Length=0.013746900000000001 bus1=p1udm5044.1.2 bus2=p1ulv1428.1.2 switch=n enabled=y phases=2 Linecode=1P_UG_AL_4/0_Sweetbriar_0_416_0_2_2_2_2

New Line.l(r:p1udm5047-p1ulv64346) Units=km Length=0.017041 bus1=p1udm5047.1.2 bus2=p1ulv64346.1.2 switch=n enabled=y phases=2 Linecode=1P_UG_AL_1/0_Brenau_0_416_0_2_2_2_2

New Line.l(r:p1udm5044-p1udm5047) Units=km Length=0.0097446 bus1=p1udm5044.1.2 bus2=p1udm5047.1.2 switch=n enabled=y phases=2 Linecode=1P_UG_AL_1/0_Brenau_0_416_0_2_2_2_2
