New Line.l(r:p2udt97lv-p2ulv10892) Units=km Length=0.0166633 bus1=p2udt97lv.1.2 bus2=p2ulv10892.1.2 switch=n enabled=y phases=2 Linecode=1P_UG_AL_1/0_Brenau_0_416_0_2_2_2_2

New Line.l(r:p2udm372-p2ulv99) Units=km Length=0.01528 bus1=p2udm372.1.2 bus2=p2ulv99.1.2 switch=n enabled=y phases=2 Linecode=1P_UG_AL_1/0_Brenau_0_416_0_2_2_2_2

New Line.l(r:p2udm374-p2ulv5919) Units=km Length=0.016049800000000003 bus1=p2udm374.1.2 bus2=p2ulv5919.1.2 switch=n enabled=y phases=2 Linecode=1P_UG_AL_1/0_Brenau_0_416_0_2_2_2_2

New Line.l(r:p2udm374-p2ulv22105) Units=km Length=0.016089 bus1=p2udm374.1.2 bus2=p2ulv22105.1.2 switch=n enabled=y phases=2 Linecode=1P_UG_AL_1/0_Brenau_0_416_0_2_2_2_2

New Line.l(r:p2udm372-p2udm374) Units=km Length=0.00945013 bus1=p2udm372.1.2 bus2=p2udm374.1.2 switch=n enabled=y phases=2 Linecode=1P_UG_AL_4/0_Sweetbriar_0_416_0_2_2_2_2

New Line.l(r:p2udm372-p2udt97lv) Units=km Length=0.00945609 bus1=p2udt97lv.1.2 bus2=p2udm372.1.2 switch=n enabled=y phases=2 Linecode=1P_UG_AL_4/0_Sweetbriar_0_416_0_2_2_2_2

New Line.l(r:p2udm373-p2ulv1078) Units=km Length=0.0150693 bus1=p2udm373.1.2 bus2=p2ulv1078.1.2 switch=n enabled=y phases=2 Linecode=1P_UG_AL_1/0_Brenau_0_416_0_2_2_2_2

New Line.l(r:p2udm376-p2ulv13268) Units=km Length=0.0179583 bus1=p2udm376.1.2 bus2=p2ulv13268.1.2 switch=n enabled=y phases=2 Linecode=1P_UG_AL_1/0_Brenau_0_416_0_2_2_2_2

New Line.l(r:p2udm373-p2udm376) Units=km Length=0.03911830000000001 bus1=p2udm373.1.2 bus2=p2udm376.1.2 switch=n enabled=y phases=2 Linecode=1P_UG_AL_1/0_Brenau_0_416_0_2_2_2_2

New Line.l(r:p2udm373-p2udt97lv) Units=km Length=0.00945609 bus1=p2udt97lv.1.2 bus2=p2udm373.1.2 switch=n enabled=y phases=2 Linecode=1P_UG_AL_4/0_Sweetbriar_0_416_0_2_2_2_2

New Line.l(r:p2udt98lv-p2ulv15069) Units=km Length=0.0160133 bus1=p2udt98lv.1.2 bus2=p2ulv15069.1.2 switch=n enabled=y phases=2 Linecode=1P_UG_AL_1/0_Brenau_0_416_0_2_2_2_2

New Line.l(r:p2udm378-p2ulv100) Units=km Length=0.0162265 bus1=p2udm378.1.2 bus2=p2ulv100.1.2 switch=n enabled=y phases=2 Linecode=1P_UG_AL_1/0_Brenau_0_416_0_2_2_2_2

New Line.l(r:p2udm378-p2ulv101) Units=km Length=0.014916 bus1=p2udm378.1.2 bus2=p2ulv101.1.2 switch=n enabled=y phases=2 Linecode=1P_UG_AL_1/0_Brenau_0_416_0_2_2_2_2

New Line.l(r:p2udm378-p2udt98lv) Units=km Length=0.009204260000000002 bus1=p2udt98lv.1.2 bus2=p2udm378.1.2 switch=n enabled=y phases=2 Linecode=1P_UG_AL_4/0_Sweetbriar_0_416_0_2_2_2_2

New Line.l(r:p2udm382-p2ulv22106) Units=km Length=0.0159481 bus1=p2udm382.1.2 bus2=p2ulv22106.1.2 switch=n enabled=y phases=2 Linecode=1P_UG_AL_1/0_Brenau_0_416_0_2_2_2_2

New Line.l(r:p2udm380-p2ulv2532) Units=km Length=0.0149766 bus1=p2udm380.1.2 bus2=p2ulv2532.1.2 switch=n enabled=y phases=2 Linecode=1P_UG_AL_4/0_Sweetbriar_0_416_0_2_2_2_2

New Line.l(r:p2udm380-p2udm382) Units=km Length=0.00921717 bus1=p2udm382.1.2 bus2=p2udm380.1.2 switch=n enabled=y phases=2 Linecode=1P_UG_AL_4/0_Sweetbriar_0_416_0_2_2_2_2

New Line.l(r:p2udm382-p2udt98lv) Units=km Length=0.009204260000000002 bus1=p2udt98lv.1.2 bus2=p2udm382.1.2 switch=n enabled=y phases=2 Linecode=1P_UG_AL_4/0_Sweetbriar_0_416_0_2_2_2_2

New Line.l(r:p2udm401-p2ulv106) Units=km Length=0.0163321 bus1=p2udm401.1.2 bus2=p2ulv106.1.2 switch=n enabled=y phases=2 Linecode=1P_UG_AL_1/0_Brenau_0_416_0_2_2_2_2

New Line.l(r:p2udm401-p2udt103lv) Units=km Length=0.00874691 bus1=p2udt103lv.1.2 bus2=p2udm401.1.2 switch=n enabled=y phases=2 Linecode=1P_UG_AL_1/0_Brenau_0_416_0_2_2_2_2

New Line.l(r:p2udm402-p2ulv21183) Units=km Length=0.016495900000000004 bus1=p2udm402.1.2 bus2=p2ulv21183.1.2 switch=n enabled=y phases=2 Linecode=1P_UG_AL_1/0_Brenau_0_416_0_2_2_2_2

New Line.l(r:p2udm402-p2udt103lv) Units=km Length=0.00874691 bus1=p2udt103lv.1.2 bus2=p2udm402.1.2 switch=n enabled=y phases=2 Linecode=1P_UG_AL_1/0_Brenau_0_416_0_2_2_2_2

New Line.l(r:p2udt104lv-p2ulv107) Units=km Length=0.0142005 bus1=p2udt104lv.1.2 bus2=p2ulv107.1.2 switch=n enabled=y phases=2 Linecode=1P_UG_AL_1/0_Brenau_0_416_0_2_2_2_2

New Line.l(r:p2udt104lv-p2ulv8099) Units=km Length=0.0149449 bus1=p2udt104lv.1.2 bus2=p2ulv8099.1.2 switch=n enabled=y phases=2 Linecode=1P_UG_AL_1/0_Brenau_0_416_0_2_2_2_2

New Line.l(r:p2udt104lv-p2ulv13944) Units=km Length=0.0151803 bus1=p2udt104lv.1.2 bus2=p2ulv13944.1.2 switch=n enabled=y phases=2 Linecode=1P_UG_AL_1/0_Brenau_0_416_0_2_2_2_2

New Line.l(r:p2udm404-p2ulv7882) Units=km Length=0.0155228 bus1=p2udm404.1.2 bus2=p2ulv7882.1.2 switch=n enabled=y phases=2 Linecode=1P_UG_AL_1/0_Brenau_0_416_0_2_2_2_2

New Line.l(r:p2udm404-p2udt104lv) Units=km Length=0.0199556 bus1=p2udt104lv.1.2 bus2=p2udm404.1.2 switch=n enabled=y phases=2 Linecode=1P_UG_AL_1/0_Brenau_0_416_0_2_2_2_2

New Line.l(r:p2udm407-p2ulv18931) Units=km Length=0.014519300000000002 bus1=p2udm407.1.2 bus2=p2ulv18931.1.2 switch=n enabled=y phases=2 Linecode=1P_UG_AL_1/0_Brenau_0_416_0_2_2_2_2

New Line.l(r:p2udm407-p2udt104lv) Units=km Length=0.00997303 bus1=p2udt104lv.1.2 bus2=p2udm407.1.2 switch=n enabled=y phases=2 Linecode=1P_UG_AL_1/0_Brenau_0_416_0_2_2_2_2

New Line.l(r:p2udt105lv-p2ulv108) Units=km Length=0.0161261 bus1=p2udt105lv.1.2 bus2=p2ulv108.1.2 switch=n enabled=y phases=2 Linecode=1P_UG_AL_1/0_Brenau_0_416_0_2_2_2_2

New Line.l(r:p2udm409-p2ulv2804) Units=km Length=0.0167714 bus1=p2udm409.1.2 bus2=p2ulv2804.1.2 switch=n enabled=y phases=2 Linecode=1P_UG_AL_1/0_Brenau_0_416_0_2_2_2_2

New Line.l(r:p2udm409-p2ulv13746) Units=km Length=0.0129435 bus1=p2udm409.1.2 bus2=p2ulv13746.1.2 switch=n enabled=y phases=2 Linecode=1P_UG_AL_1/0_Brenau_0_416_0_2_2_2_2

New Line.l(r:p2udm410-p2ulv10656) Units=km Length=0.0160331 bus1=p2udm410.1.2 bus2=p2ulv10656.1.2 switch=n enabled=y phases=2 Linecode=1P_UG_AL_1/0_Brenau_0_416_0_2_2_2_2

New Line.l(r:p2udm409-p2udm410) Units=km Length=0.00984961 bus1=p2udm409.1.2 bus2=p2udm410.1.2 switch=n enabled=y phases=2 Linecode=1P_UG_AL_1/0_Brenau_0_416_0_2_2_2_2

New Line.l(r:p2udm409-p2udt105lv) Units=km Length=0.0202549 bus1=p2udt105lv.1.2 bus2=p2udm409.1.2 switch=n enabled=y phases=2 Linecode=1P_UG_AL_4/0_Sweetbriar_0_416_0_2_2_2_2

New Line.l(r:p2udm413-p2ulv23039) Units=km Length=0.0139199 bus1=p2udm413.1.2 bus2=p2ulv23039.1.2 switch=n enabled=y phases=2 Linecode=1P_UG_AL_1/0_Brenau_0_416_0_2_2_2_2

New Line.l(r:p2udm412-p2ulv21665) Units=km Length=0.0265207 bus1=p2udm412.1.2 bus2=p2ulv21665.1.2 switch=n enabled=y phases=2 Linecode=1P_UG_AL_1/0_Brenau_0_416_0_2_2_2_2

New Line.l(r:p2udm412-p2udm413) Units=km Length=0.0356599 bus1=p2udm413.1.2 bus2=p2udm412.1.2 switch=n enabled=y phases=2 Linecode=1P_UG_AL_1/0_Brenau_0_416_0_2_2_2_2

New Line.l(r:p2udm413-p2udt105lv) Units=km Length=0.007726120000000001 bus1=p2udt105lv.1.2 bus2=p2udm413.1.2 switch=n enabled=y phases=2 Linecode=1P_UG_AL_4/0_Sweetbriar_0_416_0_2_2_2_2

New Line.l(r:p2udt106lv-p2ulv109) Units=km Length=0.05073470000000001 bus1=p2udt106lv.1.2 bus2=p2ulv109.1.2 switch=n enabled=y phases=2 Linecode=1P_OH_AL_4/0_Zuzara_0_416_0_2_2_2_2

New Line.l(r:p2udt107lv-p2ulv17848) Units=km Length=0.0167595 bus1=p2udt107lv.1.2 bus2=p2ulv17848.1.2 switch=n enabled=y phases=2 Linecode=1P_UG_AL_1/0_Brenau_0_416_0_2_2_2_2

New Line.l(r:p2udm415-p2ulv110) Units=km Length=0.014775 bus1=p2udm415.1.2 bus2=p2ulv110.1.2 switch=n enabled=y phases=2 Linecode=1P_UG_AL_1/0_Brenau_0_416_0_2_2_2_2

New Line.l(r:p2udm415-p2udt107lv) Units=km Length=0.00910412 bus1=p2udt107lv.1.2 bus2=p2udm415.1.2 switch=n enabled=y phases=2 Linecode=1P_UG_AL_1/0_Brenau_0_416_0_2_2_2_2

New Line.l(r:p2udt108lv-p2ulv111) Units=km Length=0.013579 bus1=p2udt108lv.1.2 bus2=p2ulv111.1.2 switch=n enabled=y phases=2 Linecode=1P_OH_AL_2/0_Rucina_0_416_0_2_2_2_2

New Line.l(r:p2udt108lv-p2ulv20546) Units=km Length=0.013579 bus1=p2udt108lv.1.2 bus2=p2ulv20546.1.2 switch=n enabled=y phases=2 Linecode=1P_OH_AL_2/0_Rucina_0_416_0_2_2_2_2

New Line.l(r:p2udt347lv-p2ulv18049) Units=km Length=0.0160764 bus1=p2udt347lv.1.2 bus2=p2ulv18049.1.2 switch=n enabled=y phases=2 Linecode=1P_UG_AL_1/0_Brenau_0_416_0_2_2_2_2

New Line.l(r:p2udm1276-p2ulv358) Units=km Length=0.0144945 bus1=p2udm1276.1.2 bus2=p2ulv358.1.2 switch=n enabled=y phases=2 Linecode=1P_UG_AL_1/0_Brenau_0_416_0_2_2_2_2

New Line.l(r:p2udm1278-p2ulv6157) Units=km Length=0.014540200000000001 bus1=p2udm1278.1.2 bus2=p2ulv6157.1.2 switch=n enabled=y phases=2 Linecode=1P_UG_AL_1/0_Brenau_0_416_0_2_2_2_2

New Line.l(r:p2udm1278-p2ulv9920) Units=km Length=0.0162788 bus1=p2udm1278.1.2 bus2=p2ulv9920.1.2 switch=n enabled=y phases=2 Linecode=1P_UG_AL_1/0_Brenau_0_416_0_2_2_2_2

New Line.l(r:p2udm1276-p2udm1278) Units=km Length=0.00995535 bus1=p2udm1276.1.2 bus2=p2udm1278.1.2 switch=n enabled=y phases=2 Linecode=1P_UG_AL_4/0_Sweetbriar_0_416_0_2_2_2_2

New Line.l(r:p2udm1276-p2udt347lv) Units=km Length=0.00994694 bus1=p2udt347lv.1.2 bus2=p2udm1276.1.2 switch=n enabled=y phases=2 Linecode=1P_UG_AL_4/0_Sweetbriar_0_416_0_2_2_2_2

New Line.l(r:p2udm1280-p2ulv16238) Units=km Length=0.0148638 bus1=p2udm1280.1.2 bus2=p2ulv16238.1.2 switch=n enabled=y phases=2 Linecode=1P_UG_AL_1/0_Brenau_0_416_0_2_2_2_2

New Line.l(r:p2udm1277-p2ulv3268) Units=km Length=0.0152582 bus1=p2udm1277.1.2 bus2=p2ulv3268.1.2 switch=n enabled=y phases=2 Linecode=1P_UG_AL_1/0_Brenau_0_416_0_2_2_2_2

New Line.l(r:p2udm1277-p2udm1280) Units=km Length=0.00994694 bus1=p2udm1280.1.2 bus2=p2udm1277.1.2 switch=n enabled=y phases=2 Linecode=1P_UG_AL_1/0_Brenau_0_416_0_2_2_2_2

New Line.l(r:p2udm1280-p2udt347lv) Units=km Length=0.00994153 bus1=p2udt347lv.1.2 bus2=p2udm1280.1.2 switch=n enabled=y phases=2 Linecode=1P_UG_AL_4/0_Sweetbriar_0_416_0_2_2_2_2

New Line.l(r:p2udt348lv-p2ulv359) Units=km Length=0.0137395 bus1=p2udt348lv.1.2 bus2=p2ulv359.1.2 switch=n enabled=y phases=2 Linecode=1P_UG_AL_1/0_Brenau_0_416_0_2_2_2_2

New Line.l(r:p2udt348lv-p2ulv11840) Units=km Length=0.0159328 bus1=p2udt348lv.1.2 bus2=p2ulv11840.1.2 switch=n enabled=y phases=2 Linecode=1P_UG_AL_1/0_Brenau_0_416_0_2_2_2_2

New Line.l(r:p2udm1284-p2ulv7878) Units=km Length=0.0140051 bus1=p2udm1284.1.2 bus2=p2ulv7878.1.2 switch=n enabled=y phases=2 Linecode=1P_UG_AL_1/0_Brenau_0_416_0_2_2_2_2

New Line.l(r:p2udm1283-p2ulv587) Units=km Length=0.017422 bus1=p2udm1283.1.2 bus2=p2ulv587.1.2 switch=n enabled=y phases=2 Linecode=1P_UG_AL_1/0_Brenau_0_416_0_2_2_2_2

New Line.l(r:p2udm1283-p2ulv8772) Units=km Length=0.0173698 bus1=p2udm1283.1.2 bus2=p2ulv8772.1.2 switch=n enabled=y phases=2 Linecode=1P_UG_AL_1/0_Brenau_0_416_0_2_2_2_2

New Line.l(r:p2udm1283-p2udm1284) Units=km Length=0.00962266 bus1=p2udm1284.1.2 bus2=p2udm1283.1.2 switch=n enabled=y phases=2 Linecode=1P_UG_AL_4/0_Sweetbriar_0_416_0_2_2_2_2

New Line.l(r:p2udm1284-p2udt348lv) Units=km Length=0.00962266 bus1=p2udt348lv.1.2 bus2=p2udm1284.1.2 switch=n enabled=y phases=2 Linecode=1P_UG_AL_4/0_Sweetbriar_0_416_0_2_2_2_2

New Line.l(r:p2udm1287-p2ulv16239) Units=km Length=0.00847854 bus1=p2udm1287.1.2 bus2=p2ulv16239.1.2 switch=n enabled=y phases=2 Linecode=1P_UG_AL_1/0_Brenau_0_416_0_2_2_2_2

New Line.l(r:p2udm1287-p2udt348lv) Units=km Length=0.028868 bus1=p2udt348lv.1.2 bus2=p2udm1287.1.2 switch=n enabled=y phases=2 Linecode=1P_UG_AL_1/0_Brenau_0_416_0_2_2_2_2

New Line.l(r:p2udt349lv-p2ulv360) Units=km Length=0.0171804 bus1=p2udt349lv.1.2 bus2=p2ulv360.1.2 switch=n enabled=y phases=2 Linecode=1P_UG_AL_1/0_Brenau_0_416_0_2_2_2_2

New Line.l(r:p2udm1289-p2ulv4731) Units=km Length=0.0176792 bus1=p2udm1289.1.2 bus2=p2ulv4731.1.2 switch=n enabled=y phases=2 Linecode=1P_UG_AL_1/0_Brenau_0_416_0_2_2_2_2

New Line.l(r:p2udm1289-p2ulv7367) Units=km Length=0.014531 bus1=p2udm1289.1.2 bus2=p2ulv7367.1.2 switch=n enabled=y phases=2 Linecode=1P_UG_AL_1/0_Brenau_0_416_0_2_2_2_2

New Line.l(r:p2udm1293-p2ulv19655) Units=km Length=0.0136311 bus1=p2udm1293.1.2 bus2=p2ulv19655.1.2 switch=n enabled=y phases=2 Linecode=1P_UG_AL_1/0_Brenau_0_416_0_2_2_2_2

New Line.l(r:p2udm1289-p2udm1293) Units=km Length=0.013953 bus1=p2udm1289.1.2 bus2=p2udm1293.1.2 switch=n enabled=y phases=2 Linecode=1P_UG_AL_1/0_Brenau_0_416_0_2_2_2_2

New Line.l(r:p2udm1289-p2udt349lv) Units=km Length=0.0144939 bus1=p2udt349lv.1.2 bus2=p2udm1289.1.2 switch=n enabled=y phases=2 Linecode=1P_UG_AL_4/0_Sweetbriar_0_416_0_2_2_2_2

New Line.l(r:p2udm1291-p2ulv12074) Units=km Length=0.014609300000000002 bus1=p2udm1291.1.2 bus2=p2ulv12074.1.2 switch=n enabled=y phases=2 Linecode=1P_UG_AL_1/0_Brenau_0_416_0_2_2_2_2

New Line.l(r:p2udm1292-p2ulv13742) Units=km Length=0.0156666 bus1=p2udm1292.1.2 bus2=p2ulv13742.1.2 switch=n enabled=y phases=2 Linecode=1P_UG_AL_1/0_Brenau_0_416_0_2_2_2_2

New Line.l(r:p2udm1291-p2udm1292) Units=km Length=0.019692700000000004 bus1=p2udm1291.1.2 bus2=p2udm1292.1.2 switch=n enabled=y phases=2 Linecode=1P_UG_AL_1/0_Brenau_0_416_0_2_2_2_2

New Line.l(r:p2udm1291-p2udt349lv) Units=km Length=0.00752181 bus1=p2udt349lv.1.2 bus2=p2udm1291.1.2 switch=n enabled=y phases=2 Linecode=1P_UG_AL_4/0_Sweetbriar_0_416_0_2_2_2_2

New Line.l(r:p2udt350lv-p2ulv5428) Units=km Length=0.0152764 bus1=p2udt350lv.1.2 bus2=p2ulv5428.1.2 switch=n enabled=y phases=2 Linecode=1P_UG_AL_1/0_Brenau_0_416_0_2_2_2_2

New Line.l(r:p2udt350lv-p2ulv6652) Units=km Length=0.0152147 bus1=p2udt350lv.1.2 bus2=p2ulv6652.1.2 switch=n enabled=y phases=2 Linecode=1P_UG_AL_1/0_Brenau_0_416_0_2_2_2_2

New Line.l(r:p2udm1294-p2ulv361) Units=km Length=0.0178536 bus1=p2udm1294.1.2 bus2=p2ulv361.1.2 switch=n enabled=y phases=2 Linecode=1P_UG_AL_1/0_Brenau_0_416_0_2_2_2_2

New Line.l(r:p2udm1294-p2udt350lv) Units=km Length=0.00962972 bus1=p2udt350lv.1.2 bus2=p2udm1294.1.2 switch=n enabled=y phases=2 Linecode=1P_UG_AL_1/0_Brenau_0_416_0_2_2_2_2

New Line.l(r:p2udm1297-p2ulv21663) Units=km Length=0.014080300000000002 bus1=p2udm1297.1.2 bus2=p2ulv21663.1.2 switch=n enabled=y phases=2 Linecode=1P_UG_AL_1/0_Brenau_0_416_0_2_2_2_2

New Line.l(r:p2udm1297-p2udt350lv) Units=km Length=0.019273 bus1=p2udt350lv.1.2 bus2=p2udm1297.1.2 switch=n enabled=y phases=2 Linecode=1P_UG_AL_1/0_Brenau_0_416_0_2_2_2_2

New Line.l(r:p2udt357lv-p2ulv370) Units=km Length=0.0137569 bus1=p2udt357lv.1.2 bus2=p2ulv370.1.2 switch=n enabled=y phases=2 Linecode=1P_UG_AL_1/0_Brenau_0_416_0_2_2_2_2

New Line.l(r:p2udm1313-p2ulv9249) Units=km Length=0.0144538 bus1=p2udm1313.1.2 bus2=p2ulv9249.1.2 switch=n enabled=y phases=2 Linecode=1P_UG_AL_1/0_Brenau_0_416_0_2_2_2_2

New Line.l(r:p2udm1313-p2ulv14170) Units=km Length=0.0146829 bus1=p2udm1313.1.2 bus2=p2ulv14170.1.2 switch=n enabled=y phases=2 Linecode=1P_UG_AL_1/0_Brenau_0_416_0_2_2_2_2

New Line.l(r:p2udm1313-p2udt357lv) Units=km Length=0.00971527 bus1=p2udt357lv.1.2 bus2=p2udm1313.1.2 switch=n enabled=y phases=2 Linecode=1P_UG_AL_4/0_Sweetbriar_0_416_0_2_2_2_2

New Line.l(r:p2udm1315-p2ulv18496) Units=km Length=0.0152806 bus1=p2udm1315.1.2 bus2=p2ulv18496.1.2 switch=n enabled=y phases=2 Linecode=1P_UG_AL_1/0_Brenau_0_416_0_2_2_2_2

New Line.l(r:p2udm1315-p2udt357lv) Units=km Length=0.00971527 bus1=p2udt357lv.1.2 bus2=p2udm1315.1.2 switch=n enabled=y phases=2 Linecode=1P_UG_AL_1/0_Brenau_0_416_0_2_2_2_2

New Line.l(r:p2udt358lv-p2ulv371) Units=km Length=0.016914 bus1=p2udt358lv.1.2 bus2=p2ulv371.1.2 switch=n enabled=y phases=2 Linecode=1P_UG_AL_1/0_Brenau_0_416_0_2_2_2_2

New Line.l(r:p2udt553lv-p2ulv585) Units=km Length=0.0506575 bus1=p2udt553lv.1.2 bus2=p2ulv585.1.2 switch=n enabled=y phases=2 Linecode=1P_UG_AL_1/0_Brenau_0_416_0_2_2_2_2

New Line.l(r:p2udt553lv-p2ulv9921) Units=km Length=0.015410200000000002 bus1=p2udt553lv.1.2 bus2=p2ulv9921.1.2 switch=n enabled=y phases=2 Linecode=1P_UG_AL_1/0_Brenau_0_416_0_2_2_2_2

New Line.l(r:p2udt554lv-p2ulv586) Units=km Length=0.0165331 bus1=p2udt554lv.1.2 bus2=p2ulv586.1.2 switch=n enabled=y phases=2 Linecode=1P_UG_AL_1/0_Brenau_0_416_0_2_2_2_2

New Line.l(r:p2udm2058-p2ulv5675) Units=km Length=0.011736500000000002 bus1=p2udm2058.1.2 bus2=p2ulv5675.1.2 switch=n enabled=y phases=2 Linecode=1P_UG_AL_1/0_Brenau_0_416_0_2_2_2_2

New Line.l(r:p2udm2058-p2udt554lv) Units=km Length=0.00947433 bus1=p2udt554lv.1.2 bus2=p2udm2058.1.2 switch=n enabled=y phases=2 Linecode=1P_UG_AL_1/0_Brenau_0_416_0_2_2_2_2

New Line.l(r:p2udt559lv-p2ulv5208) Units=km Length=0.0139741 bus1=p2udt559lv.1.2 bus2=p2ulv5208.1.2 switch=n enabled=y phases=2 Linecode=1P_UG_AL_1/0_Brenau_0_416_0_2_2_2_2

New Line.l(r:p2udt559lv-p2ulv10175) Units=km Length=0.0150877 bus1=p2udt559lv.1.2 bus2=p2ulv10175.1.2 switch=n enabled=y phases=2 Linecode=1P_UG_AL_1/0_Brenau_0_416_0_2_2_2_2

New Line.l(r:p2udm2076-p2ulv592) Units=km Length=0.016140700000000004 bus1=p2udm2076.1.2 bus2=p2ulv592.1.2 switch=n enabled=y phases=2 Linecode=1P_UG_AL_1/0_Brenau_0_416_0_2_2_2_2

New Line.l(r:p2udm2076-p2ulv21431) Units=km Length=0.0161299 bus1=p2udm2076.1.2 bus2=p2ulv21431.1.2 switch=n enabled=y phases=2 Linecode=1P_UG_AL_1/0_Brenau_0_416_0_2_2_2_2

New Line.l(r:p2udm2076-p2udt559lv) Units=km Length=0.0192133 bus1=p2udt559lv.1.2 bus2=p2udm2076.1.2 switch=n enabled=y phases=2 Linecode=1P_UG_AL_4/0_Sweetbriar_0_416_0_2_2_2_2

New Line.l(r:p2udm2079-p2ulv10899) Units=km Length=0.0147731 bus1=p2udm2079.1.2 bus2=p2ulv10899.1.2 switch=n enabled=y phases=2 Linecode=1P_UG_AL_1/0_Brenau_0_416_0_2_2_2_2

New Line.l(r:p2udm2079-p2ulv23450) Units=km Length=0.0162048 bus1=p2udm2079.1.2 bus2=p2ulv23450.1.2 switch=n enabled=y phases=2 Linecode=1P_UG_AL_1/0_Brenau_0_416_0_2_2_2_2

New Line.l(r:p2udm2079-p2udt559lv) Units=km Length=0.0192117 bus1=p2udt559lv.1.2 bus2=p2udm2079.1.2 switch=n enabled=y phases=2 Linecode=1P_UG_AL_4/0_Sweetbriar_0_416_0_2_2_2_2

New Line.l(r:p2udt758lv-p2ulv810) Units=km Length=0.0104507 bus1=p2udt758lv.1.2 bus2=p2ulv810.1.2 switch=n enabled=y phases=2 Linecode=1P_UG_AL_1/0_Brenau_0_416_0_2_2_2_2

New Line.l(r:p2udt758lv-p2ulv23254) Units=km Length=0.0116312 bus1=p2udt758lv.1.2 bus2=p2ulv23254.1.2 switch=n enabled=y phases=2 Linecode=1P_UG_AL_1/0_Brenau_0_416_0_2_2_2_2

New Line.l(r:p2udt759lv-p2ulv811) Units=km Length=0.0161879 bus1=p2udt759lv.1.2 bus2=p2ulv811.1.2 switch=n enabled=y phases=2 Linecode=1P_UG_AL_1/0_Brenau_0_416_0_2_2_2_2

New Line.l(r:p2udt760lv-p2ulv812) Units=km Length=0.018491 bus1=p2udt760lv.1.2 bus2=p2ulv812.1.2 switch=n enabled=y phases=2 Linecode=1P_UG_AL_1/0_Brenau_0_416_0_2_2_2_2

New Line.l(r:p2udm2815-p2ulv5921) Units=km Length=0.011873 bus1=p2udm2815.1.2 bus2=p2ulv5921.1.2 switch=n enabled=y phases=2 Linecode=1P_UG_AL_1/0_Brenau_0_416_0_2_2_2_2

New Line.l(r:p2udm2816-p2ulv17402) Units=km Length=0.0149656 bus1=p2udm2816.1.2 bus2=p2ulv17402.1.2 switch=n enabled=y phases=2 Linecode=1P_UG_AL_1/0_Brenau_0_416_0_2_2_2_2

New Line.l(r:p2udm2815-p2udm2816) Units=km Length=0.00938469 bus1=p2udm2815.1.2 bus2=p2udm2816.1.2 switch=n enabled=y phases=2 Linecode=1P_UG_AL_1/0_Brenau_0_416_0_2_2_2_2

New Line.l(r:p2udm2815-p2udt760lv) Units=km Length=0.00937597 bus1=p2udt760lv.1.2 bus2=p2udm2815.1.2 switch=n enabled=y phases=2 Linecode=1P_UG_AL_4/0_Sweetbriar_0_416_0_2_2_2_2

New Line.l(r:p2udm2817-p2ulv19879) Units=km Length=0.0141044 bus1=p2udm2817.1.2 bus2=p2ulv19879.1.2 switch=n enabled=y phases=2 Linecode=1P_UG_AL_1/0_Brenau_0_416_0_2_2_2_2

New Line.l(r:p2udm2817-p2udt760lv) Units=km Length=0.00938469 bus1=p2udt760lv.1.2 bus2=p2udm2817.1.2 switch=n enabled=y phases=2 Linecode=1P_UG_AL_1/0_Brenau_0_416_0_2_2_2_2

New Line.l(r:p2udt764lv-p2ulv9006) Units=km Length=0.0167256 bus1=p2udt764lv.1.2 bus2=p2ulv9006.1.2 switch=n enabled=y phases=2 Linecode=1P_UG_AL_1/0_Brenau_0_416_0_2_2_2_2

New Line.l(r:p2udm2827-p2ulv1814) Units=km Length=0.0130529 bus1=p2udm2827.1.2 bus2=p2ulv1814.1.2 switch=n enabled=y phases=2 Linecode=1P_UG_AL_1/0_Brenau_0_416_0_2_2_2_2

New Line.l(r:p2udm2831-p2ulv22588) Units=km Length=0.0170166 bus1=p2udm2831.1.2 bus2=p2ulv22588.1.2 switch=n enabled=y phases=2 Linecode=1P_UG_AL_1/0_Brenau_0_416_0_2_2_2_2

New Line.l(r:p2udm2827-p2udm2831) Units=km Length=0.0184711 bus1=p2udm2827.1.2 bus2=p2udm2831.1.2 switch=n enabled=y phases=2 Linecode=1P_UG_AL_1/0_Brenau_0_416_0_2_2_2_2

New Line.l(r:p2udm2827-p2udt764lv) Units=km Length=0.00924133 bus1=p2udt764lv.1.2 bus2=p2udm2827.1.2 switch=n enabled=y phases=2 Linecode=1P_UG_AL_4/0_Sweetbriar_0_416_0_2_2_2_2

New Line.l(r:p2udm2830-p2ulv20759) Units=km Length=0.0166292 bus1=p2udm2830.1.2 bus2=p2ulv20759.1.2 switch=n enabled=y phases=2 Linecode=1P_UG_AL_1/0_Brenau_0_416_0_2_2_2_2

New Line.l(r:p2udm2826-p2ulv817) Units=km Length=0.0128429 bus1=p2udm2826.1.2 bus2=p2ulv817.1.2 switch=n enabled=y phases=2 Linecode=1P_UG_AL_1/0_Brenau_0_416_0_2_2_2_2

New Line.l(r:p2udm2826-p2ulv9684) Units=km Length=0.0173614 bus1=p2udm2826.1.2 bus2=p2ulv9684.1.2 switch=n enabled=y phases=2 Linecode=1P_UG_AL_1/0_Brenau_0_416_0_2_2_2_2

New Line.l(r:p2udm2826-p2udm2830) Units=km Length=0.0182869 bus1=p2udm2830.1.2 bus2=p2udm2826.1.2 switch=n enabled=y phases=2 Linecode=1P_UG_AL_2/0_Converse_0_416_0_2_2_2_2

New Line.l(r:p2udm2830-p2udt764lv) Units=km Length=0.00922974 bus1=p2udt764lv.1.2 bus2=p2udm2830.1.2 switch=n enabled=y phases=2 Linecode=1P_UG_AL_4/0_Sweetbriar_0_416_0_2_2_2_2

New Line.l(r:p2udm2832-p2ulv818) Units=km Length=0.0145 bus1=p2udm2832.1.2 bus2=p2ulv818.1.2 switch=n enabled=y phases=2 Linecode=1P_UG_AL_1/0_Brenau_0_416_0_2_2_2_2

New Line.l(r:p2udm2832-p2ulv19173) Units=km Length=0.0157007 bus1=p2udm2832.1.2 bus2=p2ulv19173.1.2 switch=n enabled=y phases=2 Linecode=1P_UG_AL_1/0_Brenau_0_416_0_2_2_2_2

New Line.l(r:p2udm2832-p2udt765lv) Units=km Length=0.00997303 bus1=p2udt765lv.1.2 bus2=p2udm2832.1.2 switch=n enabled=y phases=2 Linecode=1P_UG_AL_2/0_Converse_0_416_0_2_2_2_2

New Line.l(r:p2udm2833-p2ulv3739) Units=km Length=0.015091000000000002 bus1=p2udm2833.1.2 bus2=p2ulv3739.1.2 switch=n enabled=y phases=2 Linecode=1P_UG_AL_1/0_Brenau_0_416_0_2_2_2_2

New Line.l(r:p2udm2833-p2ulv22365) Units=km Length=0.016105600000000005 bus1=p2udm2833.1.2 bus2=p2ulv22365.1.2 switch=n enabled=y phases=2 Linecode=1P_UG_AL_1/0_Brenau_0_416_0_2_2_2_2

New Line.l(r:p2udm2834-p2ulv5435) Units=km Length=0.0161508 bus1=p2udm2834.1.2 bus2=p2ulv5435.1.2 switch=n enabled=y phases=2 Linecode=1P_UG_AL_1/0_Brenau_0_416_0_2_2_2_2

New Line.l(r:p2udm2834-p2ulv19174) Units=km Length=0.0145774 bus1=p2udm2834.1.2 bus2=p2ulv19174.1.2 switch=n enabled=y phases=2 Linecode=1P_UG_AL_1/0_Brenau_0_416_0_2_2_2_2

New Line.l(r:p2udm2833-p2udm2834) Units=km Length=0.00997778 bus1=p2udm2833.1.2 bus2=p2udm2834.1.2 switch=n enabled=y phases=2 Linecode=1P_UG_AL_4/0_Sweetbriar_0_416_0_2_2_2_2

New Line.l(r:p2udm2833-p2udt765lv) Units=km Length=0.00997778 bus1=p2udt765lv.1.2 bus2=p2udm2833.1.2 switch=n enabled=y phases=2 Linecode=1P_UG_AL_4/0_Sweetbriar_0_416_0_2_2_2_2

New Line.l(r:p2udt766lv-p2ulv819) Units=km Length=0.0177658 bus1=p2udt766lv.1.2 bus2=p2ulv819.1.2 switch=n enabled=y phases=2 Linecode=1P_UG_AL_1/0_Brenau_0_416_0_2_2_2_2

New Line.l(r:p2udm2839-p2ulv1815) Units=km Length=0.0134215 bus1=p2udm2839.1.2 bus2=p2ulv1815.1.2 switch=n enabled=y phases=2 Linecode=1P_UG_AL_1/0_Brenau_0_416_0_2_2_2_2

New Line.l(r:p2udm2841-p2ulv21882) Units=km Length=0.0168774 bus1=p2udm2841.1.2 bus2=p2ulv21882.1.2 switch=n enabled=y phases=2 Linecode=1P_UG_AL_1/0_Brenau_0_416_0_2_2_2_2

New Line.l(r:p2udm2839-p2udm2841) Units=km Length=0.00948287 bus1=p2udm2839.1.2 bus2=p2udm2841.1.2 switch=n enabled=y phases=2 Linecode=1P_UG_AL_1/0_Brenau_0_416_0_2_2_2_2

New Line.l(r:p2udm2839-p2udt766lv) Units=km Length=0.0094712 bus1=p2udt766lv.1.2 bus2=p2udm2839.1.2 switch=n enabled=y phases=2 Linecode=1P_UG_AL_4/0_Sweetbriar_0_416_0_2_2_2_2

New Line.l(r:p2udm2840-p2ulv21184) Units=km Length=0.0181934 bus1=p2udm2840.1.2 bus2=p2ulv21184.1.2 switch=n enabled=y phases=2 Linecode=1P_UG_AL_1/0_Brenau_0_416_0_2_2_2_2

New Line.l(r:p2udm2840-p2udt766lv) Units=km Length=0.0189522 bus1=p2udt766lv.1.2 bus2=p2udm2840.1.2 switch=n enabled=y phases=2 Linecode=1P_UG_AL_1/0_Brenau_0_416_0_2_2_2_2

New Line.l(r:p2udt767lv-p2ulv820) Units=km Length=0.0372051 bus1=p2udt767lv.1.2 bus2=p2ulv820.1.2 switch=n enabled=y phases=2 Linecode=1P_OH_AL_4/0_Zuzara_0_416_0_2_2_2_2

New Line.l(r:p2udt768lv-p2ulv2289) Units=km Length=0.0178019 bus1=p2udt768lv.1.2 bus2=p2ulv2289.1.2 switch=n enabled=y phases=2 Linecode=1P_OH_AL_2/0_Rucina_0_416_0_2_2_2_2

New Line.l(r:p2udt768lv-p2ulv7137) Units=km Length=0.0204761 bus1=p2udt768lv.1.2 bus2=p2ulv7137.1.2 switch=n enabled=y phases=2 Linecode=1P_OH_AL_2/0_Rucina_0_416_0_2_2_2_2

New Line.l(r:p2udt768lv-p2ulv8995) Units=km Length=0.0163696 bus1=p2udt768lv.1.2 bus2=p2ulv8995.1.2 switch=n enabled=y phases=2 Linecode=1P_OH_AL_2/0_Rucina_0_416_0_2_2_2_2

New Line.l(r:p2udm2843-p2ulv821) Units=km Length=0.0173034 bus1=p2udm2843.1.2 bus2=p2ulv821.1.2 switch=n enabled=y phases=2 Linecode=1P_OH_AL_2/0_Rucina_0_416_0_2_2_2_2

New Line.l(r:p2udm2843-p2ulv10657) Units=km Length=0.0164336 bus1=p2udm2843.1.2 bus2=p2ulv10657.1.2 switch=n enabled=y phases=2 Linecode=1P_OH_AL_2/0_Rucina_0_416_0_2_2_2_2

New Line.l(r:p2udm2843-p2udt768lv) Units=km Length=0.0185383 bus1=p2udt768lv.1.2 bus2=p2udm2843.1.2 switch=n enabled=y phases=2 Linecode=1P_OH_AL_2/0_Rucina_0_416_0_2_2_2_2

New Line.l(r:p2udt999lv-p2ulv1324) Units=km Length=0.0144949 bus1=p2udt999lv.1.2 bus2=p2ulv1324.1.2 switch=n enabled=y phases=2 Linecode=1P_UG_AL_1/0_Brenau_0_416_0_2_2_2_2

New Line.l(r:p2udt999lv-p2ulv6425) Units=km Length=0.0150263 bus1=p2udt999lv.1.2 bus2=p2ulv6425.1.2 switch=n enabled=y phases=2 Linecode=1P_UG_AL_1/0_Brenau_0_416_0_2_2_2_2

New Line.l(r:p2udm3685-p2ulv1079) Units=km Length=0.0149581 bus1=p2udm3685.1.2 bus2=p2ulv1079.1.2 switch=n enabled=y phases=2 Linecode=1P_UG_AL_1/0_Brenau_0_416_0_2_2_2_2

New Line.l(r:p2udm3685-p2ulv23255) Units=km Length=0.0159314 bus1=p2udm3685.1.2 bus2=p2ulv23255.1.2 switch=n enabled=y phases=2 Linecode=1P_UG_AL_1/0_Brenau_0_416_0_2_2_2_2

New Line.l(r:p2udm3685-p2udt999lv) Units=km Length=0.009636 bus1=p2udt999lv.1.2 bus2=p2udm3685.1.2 switch=n enabled=y phases=2 Linecode=1P_UG_AL_4/0_Sweetbriar_0_416_0_2_2_2_2

New Line.l(r:p2udm3687-p2ulv1809) Units=km Length=0.016101900000000002 bus1=p2udm3687.1.2 bus2=p2ulv1809.1.2 switch=n enabled=y phases=2 Linecode=1P_UG_AL_1/0_Brenau_0_416_0_2_2_2_2

New Line.l(r:p2udm3689-p2ulv20541) Units=km Length=0.0166964 bus1=p2udm3689.1.2 bus2=p2ulv20541.1.2 switch=n enabled=y phases=2 Linecode=1P_UG_AL_1/0_Brenau_0_416_0_2_2_2_2

New Line.l(r:p2udm3687-p2udm3689) Units=km Length=0.009636 bus1=p2udm3687.1.2 bus2=p2udm3689.1.2 switch=n enabled=y phases=2 Linecode=1P_UG_AL_1/0_Brenau_0_416_0_2_2_2_2

New Line.l(r:p2udm3687-p2udt999lv) Units=km Length=0.00963249 bus1=p2udt999lv.1.2 bus2=p2udm3687.1.2 switch=n enabled=y phases=2 Linecode=1P_UG_AL_4/0_Sweetbriar_0_416_0_2_2_2_2

New Line.l(r:p2udt1000lv-p2ulv3272) Units=km Length=0.0247127 bus1=p2udt1000lv.1.2 bus2=p2ulv3272.1.2 switch=n enabled=y phases=2 Linecode=1P_UG_AL_1/0_Brenau_0_416_0_2_2_2_2

New Line.l(r:p2udt1000lv-p2ulv4730) Units=km Length=0.0252582 bus1=p2udt1000lv.1.2 bus2=p2ulv4730.1.2 switch=n enabled=y phases=2 Linecode=1P_UG_AL_1/0_Brenau_0_416_0_2_2_2_2

New Line.l(r:p2udt1000lv-p2ulv10895) Units=km Length=0.0234923 bus1=p2udt1000lv.1.2 bus2=p2ulv10895.1.2 switch=n enabled=y phases=2 Linecode=1P_UG_AL_1/0_Brenau_0_416_0_2_2_2_2

New Line.l(r:p2udt1000lv-p2ulv16459) Units=km Length=0.0249925 bus1=p2udt1000lv.1.2 bus2=p2ulv16459.1.2 switch=n enabled=y phases=2 Linecode=1P_UG_AL_1/0_Brenau_0_416_0_2_2_2_2

New Line.l(r:p2udt1000lv-p2ulv22584) Units=km Length=0.0230317 bus1=p2udt1000lv.1.2 bus2=p2ulv22584.1.2 switch=n enabled=y phases=2 Linecode=1P_UG_AL_1/0_Brenau_0_416_0_2_2_2_2

New Line.l(r:p2udm3691-p2ulv1080) Units=km Length=0.0218948 bus1=p2udm3691.1.2 bus2=p2ulv1080.1.2 switch=n enabled=y phases=2 Linecode=1P_UG_AL_1/0_Brenau_0_416_0_2_2_2_2

New Line.l(r:p2udm3691-p2udt1000lv) Units=km Length=0.00963233 bus1=p2udt1000lv.1.2 bus2=p2udm3691.1.2 switch=n enabled=y phases=2 Linecode=1P_UG_AL_1/0_Brenau_0_416_0_2_2_2_2

New Line.l(r:p2udt1001lv-p2ulv20095) Units=km Length=0.0162727 bus1=p2udt1001lv.1.2 bus2=p2ulv20095.1.2 switch=n enabled=y phases=2 Linecode=1P_UG_AL_1/0_Brenau_0_416_0_2_2_2_2

New Line.l(r:p2udm3697-p2ulv1081) Units=km Length=0.0140735 bus1=p2udm3697.1.2 bus2=p2ulv1081.1.2 switch=n enabled=y phases=2 Linecode=1P_UG_AL_1/0_Brenau_0_416_0_2_2_2_2

New Line.l(r:p2udm3699-p2ulv17151) Units=km Length=0.013834500000000001 bus1=p2udm3699.1.2 bus2=p2ulv17151.1.2 switch=n enabled=y phases=2 Linecode=1P_UG_AL_1/0_Brenau_0_416_0_2_2_2_2

New Line.l(r:p2udm3697-p2udm3699) Units=km Length=0.00962972 bus1=p2udm3697.1.2 bus2=p2udm3699.1.2 switch=n enabled=y phases=2 Linecode=1P_UG_AL_1/0_Brenau_0_416_0_2_2_2_2

New Line.l(r:p2udm3697-p2udt1001lv) Units=km Length=0.00963451 bus1=p2udt1001lv.1.2 bus2=p2udm3697.1.2 switch=n enabled=y phases=2 Linecode=1P_UG_AL_4/0_Sweetbriar_0_416_0_2_2_2_2

New Line.l(r:p2udm3698-p2ulv4477) Units=km Length=0.0163596 bus1=p2udm3698.1.2 bus2=p2ulv4477.1.2 switch=n enabled=y phases=2 Linecode=1P_UG_AL_1/0_Brenau_0_416_0_2_2_2_2

New Line.l(r:p2udm3698-p2udt1001lv) Units=km Length=0.009638510000000001 bus1=p2udt1001lv.1.2 bus2=p2udm3698.1.2 switch=n enabled=y phases=2 Linecode=1P_UG_AL_1/0_Brenau_0_416_0_2_2_2_2

New Line.l(r:p2udt1006lv-p2ulv1579) Units=km Length=0.015187 bus1=p2udt1006lv.1.2 bus2=p2ulv1579.1.2 switch=n enabled=y phases=2 Linecode=1P_UG_AL_1/0_Brenau_0_416_0_2_2_2_2

New Line.l(r:p2udm3721-p2ulv1086) Units=km Length=0.0153909 bus1=p2udm3721.1.2 bus2=p2ulv1086.1.2 switch=n enabled=y phases=2 Linecode=1P_UG_AL_1/0_Brenau_0_416_0_2_2_2_2

New Line.l(r:p2udm3721-p2udt1006lv) Units=km Length=0.00997778 bus1=p2udt1006lv.1.2 bus2=p2udm3721.1.2 switch=n enabled=y phases=2 Linecode=1P_UG_AL_1/0_Brenau_0_416_0_2_2_2_2

New Line.l(r:p2udt1007lv-p2ulv23663) Units=km Length=0.0153468 bus1=p2udt1007lv.1.2 bus2=p2ulv23663.1.2 switch=n enabled=y phases=2 Linecode=1P_UG_AL_1/0_Brenau_0_416_0_2_2_2_2

New Line.l(r:p2udm3724-p2ulv7883) Units=km Length=0.014806800000000002 bus1=p2udm3724.1.2 bus2=p2ulv7883.1.2 switch=n enabled=y phases=2 Linecode=1P_UG_AL_1/0_Brenau_0_416_0_2_2_2_2
