New Line.l(r:p5udt8540lv-p5ulv19954) Units=km Length=0.0267593 bus1=p5udt8540lv.1.2 bus2=p5ulv19954.1.2 switch=n enabled=y phases=2 Linecode=1P_OH_AL_2/0_Rucina_0_416_0_2_2_2_2

New Line.l(r:p5udt8541lv-p5ulv19955) Units=km Length=0.0891345 bus1=p5udt8541lv.1.2 bus2=p5ulv19955.1.2 switch=n enabled=y phases=2 Linecode=1P_OH_AL_4/0_Zuzara_0_416_0_2_2_2_2

New Line.l(r:p5udt8541lv-p5ulv71906) Units=km Length=0.0652912 bus1=p5udt8541lv.1.2 bus2=p5ulv71906.1.2 switch=n enabled=y phases=2 Linecode=1P_OH_AL_4/0_Zuzara_0_416_0_2_2_2_2

New Line.l(r:p5udm22937-p5ulv73568) Units=km Length=0.0959087 bus1=p5udm22937.1.2 bus2=p5ulv73568.1.2 switch=n enabled=y phases=2 Linecode=1P_OH_AL_4/0_Zuzara_0_416_0_2_2_2_2

New Line.l(r:p5udm22937-p5udt8541lv) Units=km Length=0.00983893 bus1=p5udt8541lv.1.2 bus2=p5udm22937.1.2 switch=n enabled=y phases=2 Linecode=1P_OH_AL_2/0_Rucina_0_416_0_2_2_2_2

New Line.l(r:p5udm24477-p5ulv20472) Units=km Length=0.0166622 bus1=p5udm24477.1.2 bus2=p5ulv20472.1.2 switch=n enabled=y phases=2 Linecode=1P_OH_AL_2/0_Rucina_0_416_0_2_2_2_2

New Line.l(r:p5udm24477-p5udt9030lv) Units=km Length=0.0185303 bus1=p5udt9030lv.1.2 bus2=p5udm24477.1.2 switch=n enabled=y phases=2 Linecode=1P_OH_AL_2/0_Rucina_0_416_0_2_2_2_2

New Line.l(r:p5udm24478-p5ulv34383) Units=km Length=0.0220753 bus1=p5udm24478.1.2 bus2=p5ulv34383.1.2 switch=n enabled=y phases=2 Linecode=1P_OH_AL_2/0_Rucina_0_416_0_2_2_2_2

New Line.l(r:p5udm24478-p5ulv41592) Units=km Length=0.0173183 bus1=p5udm24478.1.2 bus2=p5ulv41592.1.2 switch=n enabled=y phases=2 Linecode=1P_OH_AL_2/0_Rucina_0_416_0_2_2_2_2

New Line.l(r:p5udm24478-p5udt9030lv) Units=km Length=0.0185303 bus1=p5udt9030lv.1.2 bus2=p5udm24478.1.2 switch=n enabled=y phases=2 Linecode=1P_OH_AL_2/0_Rucina_0_416_0_2_2_2_2

New Line.l(r:p5udt9031lv-p5ulv20473) Units=km Length=0.0456306 bus1=p5udt9031lv.1.2 bus2=p5ulv20473.1.2 switch=n enabled=y phases=2 Linecode=1P_OH_AL_4/0_Zuzara_0_416_0_2_2_2_2

New Line.l(r:p5udt9031lv-p5ulv59573) Units=km Length=0.0391123 bus1=p5udt9031lv.1.2 bus2=p5ulv59573.1.2 switch=n enabled=y phases=2 Linecode=1P_OH_AL_4/0_Zuzara_0_416_0_2_2_2_2

New Line.l(r:p5udm26175-p5ulv21025) Units=km Length=0.020402100000000003 bus1=p5udm26175.1.2 bus2=p5ulv21025.1.2 switch=n enabled=y phases=2 Linecode=1P_OH_AL_2/0_Rucina_0_416_0_2_2_2_2

New Line.l(r:p5udm26175-p5udt9547lv) Units=km Length=0.0115398 bus1=p5udt9547lv.1.2 bus2=p5udm26175.1.2 switch=n enabled=y phases=2 Linecode=1P_OH_AL_2/0_Rucina_0_416_0_2_2_2_2

New Line.l(r:p5udm26176-p5ulv64653) Units=km Length=0.0593167 bus1=p5udm26176.1.2 bus2=p5ulv64653.1.2 switch=n enabled=y phases=2 Linecode=1P_OH_AL_4/0_Zuzara_0_416_0_2_2_2_2

New Line.l(r:p5udm26176-p5udt9547lv) Units=km Length=0.0152418 bus1=p5udt9547lv.1.2 bus2=p5udm26176.1.2 switch=n enabled=y phases=2 Linecode=1P_OH_AL_2/0_Rucina_0_416_0_2_2_2_2

New Line.l(r:p5udt10042lv-p5ulv21578) Units=km Length=0.0604278 bus1=p5udt10042lv.1.2 bus2=p5ulv21578.1.2 switch=n enabled=y phases=2 Linecode=1P_OH_AL_4/0_Zuzara_0_416_0_2_2_2_2

New Line.l(r:p5udt10042lv-p5ulv36077) Units=km Length=0.026355200000000002 bus1=p5udt10042lv.1.2 bus2=p5ulv36077.1.2 switch=n enabled=y phases=2 Linecode=1P_OH_AL_2/0_Rucina_0_416_0_2_2_2_2

New Line.l(r:p5udt10042lv-p5ulv43839) Units=km Length=0.0267816 bus1=p5udt10042lv.1.2 bus2=p5ulv43839.1.2 switch=n enabled=y phases=2 Linecode=1P_OH_AL_2/0_Rucina_0_416_0_2_2_2_2

New Line.l(r:p5udt10522lv-p5ulv22113) Units=km Length=0.015599600000000002 bus1=p5udt10522lv.1.2 bus2=p5ulv22113.1.2 switch=n enabled=y phases=2 Linecode=1P_OH_AL_2/0_Rucina_0_416_0_2_2_2_2

New Line.l(r:p5udt10523lv-p5ulv22114) Units=km Length=0.03930770000000001 bus1=p5udt10523lv.1.2 bus2=p5ulv22114.1.2 switch=n enabled=y phases=2 Linecode=1P_OH_AL_4/0_Zuzara_0_416_0_2_2_2_2

New Line.l(r:p5udt10523lv-p5ulv56773) Units=km Length=0.014917 bus1=p5udt10523lv.1.2 bus2=p5ulv56773.1.2 switch=n enabled=y phases=2 Linecode=1P_OH_AL_2/0_Rucina_0_416_0_2_2_2_2

New Line.l(r:p5udt10539lv-p5ulv22131) Units=km Length=0.036284300000000005 bus1=p5udt10539lv.1.2 bus2=p5ulv22131.1.2 switch=n enabled=y phases=2 Linecode=1P_OH_AL_4/0_Zuzara_0_416_0_2_2_2_2

New Line.l(r:p5udt10539lv-p5ulv27753) Units=km Length=0.050674000000000004 bus1=p5udt10539lv.1.2 bus2=p5ulv27753.1.2 switch=n enabled=y phases=2 Linecode=1P_OH_AL_4/0_Zuzara_0_416_0_2_2_2_2

New Line.l(r:p5udt10539lv-p5ulv42200) Units=km Length=0.0386502 bus1=p5udt10539lv.1.2 bus2=p5ulv42200.1.2 switch=n enabled=y phases=2 Linecode=1P_OH_AL_4/0_Zuzara_0_416_0_2_2_2_2

New Line.l(r:p5udt10539lv-p5ulv71904) Units=km Length=0.0694558 bus1=p5udt10539lv.1.2 bus2=p5ulv71904.1.2 switch=n enabled=y phases=2 Linecode=1P_OH_AL_4/0_Zuzara_0_416_0_2_2_2_2

New Line.l(r:p5udt10540lv-p5ulv22132) Units=km Length=0.0412048 bus1=p5udt10540lv.1.2 bus2=p5ulv22132.1.2 switch=n enabled=y phases=2 Linecode=1P_OH_AL_4/0_Zuzara_0_416_0_2_2_2_2

New Line.l(r:p5udt11006lv-p5ulv23804) Units=km Length=0.0708401 bus1=p5udt11006lv.1.2 bus2=p5ulv23804.1.2 switch=n enabled=y phases=2 Linecode=1P_OH_AL_4/0_Zuzara_0_416_0_2_2_2_2

New Line.l(r:p5udt11006lv-p5ulv46081) Units=km Length=0.0783675 bus1=p5udt11006lv.1.2 bus2=p5ulv46081.1.2 switch=n enabled=y phases=2 Linecode=1P_OH_AL_4/0_Zuzara_0_416_0_2_2_2_2

New Line.l(r:p5udm30826-p5ulv22666) Units=km Length=0.06678300000000001 bus1=p5udm30826.1.2 bus2=p5ulv22666.1.2 switch=n enabled=y phases=2 Linecode=1P_OH_AL_4/0_Zuzara_0_416_0_2_2_2_2

New Line.l(r:p5udm30826-p5udt11006lv) Units=km Length=0.0318565 bus1=p5udt11006lv.1.2 bus2=p5udm30826.1.2 switch=n enabled=y phases=2 Linecode=1P_OH_AL_4/0_Zuzara_0_416_0_2_2_2_2

New Line.l(r:p5udt11023lv-p5ulv22685) Units=km Length=0.0274861 bus1=p5udt11023lv.1.2 bus2=p5ulv22685.1.2 switch=n enabled=y phases=2 Linecode=1P_OH_AL_4/0_Zuzara_0_416_0_2_2_2_2

New Line.l(r:p5udt11023lv-p5ulv47728) Units=km Length=0.00752622 bus1=p5udt11023lv.1.2 bus2=p5ulv47728.1.2 switch=n enabled=y phases=2 Linecode=1P_OH_AL_2/0_Rucina_0_416_0_2_2_2_2

New Line.l(r:p5udt11495lv-p5ulv23222) Units=km Length=0.0165991 bus1=p5udt11495lv.1.2 bus2=p5ulv23222.1.2 switch=n enabled=y phases=2 Linecode=1P_OH_AL_2/0_Rucina_0_416_0_2_2_2_2

New Line.l(r:p5udt11961lv-p5ulv23805) Units=km Length=0.0160994 bus1=p5udt11961lv.1.2 bus2=p5ulv23805.1.2 switch=n enabled=y phases=2 Linecode=1P_OH_AL_2/0_Rucina_0_416_0_2_2_2_2

New Line.l(r:p5udm33862-p5ulv23831) Units=km Length=0.0123068 bus1=p5udm33862.1.2 bus2=p5ulv23831.1.2 switch=n enabled=y phases=2 Linecode=1P_OH_AL_2/0_Rucina_0_416_0_2_2_2_2

New Line.l(r:p5udm33862-p5udt11984lv) Units=km Length=0.0156699 bus1=p5udt11984lv.1.2 bus2=p5udm33862.1.2 switch=n enabled=y phases=2 Linecode=1P_OH_AL_2/0_Rucina_0_416_0_2_2_2_2

New Line.l(r:p5udm33863-p5ulv74115) Units=km Length=0.0126236 bus1=p5udm33863.1.2 bus2=p5ulv74115.1.2 switch=n enabled=y phases=2 Linecode=1P_OH_AL_2/0_Rucina_0_416_0_2_2_2_2

New Line.l(r:p5udm33863-p5udt11984lv) Units=km Length=0.0156704 bus1=p5udt11984lv.1.2 bus2=p5udm33863.1.2 switch=n enabled=y phases=2 Linecode=1P_OH_AL_2/0_Rucina_0_416_0_2_2_2_2

New Line.l(r:p5udt12452lv-p5ulv24400) Units=km Length=0.0151248 bus1=p5udt12452lv.1.2 bus2=p5ulv24400.1.2 switch=n enabled=y phases=2 Linecode=1P_OH_AL_2/0_Rucina_0_416_0_2_2_2_2

New Line.l(r:p5udt13319lv-p5ulv25511) Units=km Length=0.046275 bus1=p5udt13319lv.1.2 bus2=p5ulv25511.1.2 switch=n enabled=y phases=2 Linecode=1P_OH_AL_4/0_Zuzara_0_416_0_2_2_2_2

New Line.l(r:p5udt13726lv-p5ulv26054) Units=km Length=0.016561300000000004 bus1=p5udt13726lv.1.2 bus2=p5ulv26054.1.2 switch=n enabled=y phases=2 Linecode=1P_OH_AL_2/0_Rucina_0_416_0_2_2_2_2

New Line.l(r:p5udt13727lv-p5ulv26055) Units=km Length=0.0140087 bus1=p5udt13727lv.1.2 bus2=p5ulv26055.1.2 switch=n enabled=y phases=2 Linecode=1P_OH_AL_2/0_Rucina_0_416_0_2_2_2_2

New Line.l(r:p5udt13748lv-p5ulv26078) Units=km Length=0.0576732 bus1=p5udt13748lv.1.2 bus2=p5ulv26078.1.2 switch=n enabled=y phases=2 Linecode=1P_OH_AL_4/0_Zuzara_0_416_0_2_2_2_2

New Line.l(r:p5udt13749lv-p5ulv28360) Units=km Length=0.0246174 bus1=p5udt13749lv.1.2 bus2=p5ulv28360.1.2 switch=n enabled=y phases=2 Linecode=1P_OH_AL_2/0_Rucina_0_416_0_2_2_2_2

New Line.l(r:p5udm39055-p5ulv26080) Units=km Length=0.0298649 bus1=p5udm39055.1.2 bus2=p5ulv26080.1.2 switch=n enabled=y phases=2 Linecode=1P_OH_AL_4/0_Zuzara_0_416_0_2_2_2_2

New Line.l(r:p5udm39055-p5udt13749lv) Units=km Length=0.0150464 bus1=p5udt13749lv.1.2 bus2=p5udm39055.1.2 switch=n enabled=y phases=2 Linecode=1P_OH_AL_2/0_Rucina_0_416_0_2_2_2_2

New Line.l(r:p5udt13751lv-p5ulv26082) Units=km Length=0.0375122 bus1=p5udt13751lv.1.2 bus2=p5ulv26082.1.2 switch=n enabled=y phases=2 Linecode=1P_OH_AL_4/0_Zuzara_0_416_0_2_2_2_2

New Line.l(r:p5udt13751lv-p5ulv34406) Units=km Length=0.0339917 bus1=p5udt13751lv.1.2 bus2=p5ulv34406.1.2 switch=n enabled=y phases=2 Linecode=1P_OH_AL_4/0_Zuzara_0_416_0_2_2_2_2

New Line.l(r:p5udt14160lv-p5ulv41613) Units=km Length=0.0312814 bus1=p5udt14160lv.1.2 bus2=p5ulv41613.1.2 switch=n enabled=y phases=2 Linecode=1P_OH_AL_4/0_Zuzara_0_416_0_2_2_2_2

New Line.l(r:p5udm40261-p5ulv26633) Units=km Length=0.0540852 bus1=p5udm40261.1.2 bus2=p5ulv26633.1.2 switch=n enabled=y phases=2 Linecode=1P_OH_AL_4/0_Zuzara_0_416_0_2_2_2_2

New Line.l(r:p5udm40261-p5udt14160lv) Units=km Length=0.0182237 bus1=p5udt14160lv.1.2 bus2=p5udm40261.1.2 switch=n enabled=y phases=2 Linecode=1P_OH_AL_2/0_Rucina_0_416_0_2_2_2_2

New Line.l(r:p5udt14161lv-p5ulv26634) Units=km Length=0.00885226 bus1=p5udt14161lv.1.2 bus2=p5ulv26634.1.2 switch=n enabled=y phases=2 Linecode=1P_OH_AL_2/0_Rucina_0_416_0_2_2_2_2

New Line.l(r:p5udt14162lv-p5ulv26635) Units=km Length=0.0165938 bus1=p5udt14162lv.1.2 bus2=p5ulv26635.1.2 switch=n enabled=y phases=2 Linecode=1P_OH_AL_2/0_Rucina_0_416_0_2_2_2_2

New Line.l(r:p5udt14163lv-p5ulv26636) Units=km Length=0.0112778 bus1=p5udt14163lv.1.2 bus2=p5ulv26636.1.2 switch=n enabled=y phases=2 Linecode=1P_OH_AL_2/0_Rucina_0_416_0_2_2_2_2

New Line.l(r:p5udt14531lv-p5ulv27146) Units=km Length=0.0227904 bus1=p5udt14531lv.1.2 bus2=p5ulv27146.1.2 switch=n enabled=y phases=2 Linecode=1P_OH_AL_2/0_Rucina_0_416_0_2_2_2_2

New Line.l(r:p5udt14980lv-p5ulv27754) Units=km Length=0.0109256 bus1=p5udt14980lv.1.2 bus2=p5ulv27754.1.2 switch=n enabled=y phases=2 Linecode=1P_OH_AL_2/0_Rucina_0_416_0_2_2_2_2

New Line.l(r:p5udt14981lv-p5ulv27755) Units=km Length=0.0267842 bus1=p5udt14981lv.1.2 bus2=p5ulv27755.1.2 switch=n enabled=y phases=2 Linecode=1P_OH_AL_2/0_Rucina_0_416_0_2_2_2_2

New Line.l(r:p5udt14981lv-p5ulv28933) Units=km Length=0.024571 bus1=p5udt14981lv.1.2 bus2=p5ulv28933.1.2 switch=n enabled=y phases=2 Linecode=1P_OH_AL_2/0_Rucina_0_416_0_2_2_2_2

New Line.l(r:p5udt14981lv-p5ulv37748) Units=km Length=0.0260104 bus1=p5udt14981lv.1.2 bus2=p5ulv37748.1.2 switch=n enabled=y phases=2 Linecode=1P_OH_AL_2/0_Rucina_0_416_0_2_2_2_2

New Line.l(r:p5udm42674-p5ulv31660) Units=km Length=0.0146081 bus1=p5udm42674.1.2 bus2=p5ulv31660.1.2 switch=n enabled=y phases=2 Linecode=1P_OH_AL_2/0_Rucina_0_416_0_2_2_2_2

New Line.l(r:p5udm42674-p5udt14981lv) Units=km Length=0.0583012 bus1=p5udt14981lv.1.2 bus2=p5udm42674.1.2 switch=n enabled=y phases=2 Linecode=1P_OH_AL_4/0_Zuzara_0_416_0_2_2_2_2

New Line.l(r:p5udt14982lv-p5ulv27756) Units=km Length=0.0154461 bus1=p5udt14982lv.1.2 bus2=p5ulv27756.1.2 switch=n enabled=y phases=2 Linecode=1P_OH_AL_2/0_Rucina_0_416_0_2_2_2_2

New Line.l(r:p5udt15394lv-p5ulv28361) Units=km Length=0.0152338 bus1=p5udt15394lv.1.2 bus2=p5ulv28361.1.2 switch=n enabled=y phases=2 Linecode=1P_OH_AL_2/0_Rucina_0_416_0_2_2_2_2

New Line.l(r:p5udt15394lv-p5ulv64112) Units=km Length=0.01823 bus1=p5udt15394lv.1.2 bus2=p5ulv64112.1.2 switch=n enabled=y phases=2 Linecode=1P_OH_AL_2/0_Rucina_0_416_0_2_2_2_2

New Line.l(r:p5udt15780lv-p5ulv28932) Units=km Length=0.034342 bus1=p5udt15780lv.1.2 bus2=p5ulv28932.1.2 switch=n enabled=y phases=2 Linecode=1P_OH_AL_4/0_Zuzara_0_416_0_2_2_2_2

New Line.l(r:p5udt15780lv-p5ulv48266) Units=km Length=0.0322734 bus1=p5udt15780lv.1.2 bus2=p5ulv48266.1.2 switch=n enabled=y phases=2 Linecode=1P_OH_AL_4/0_Zuzara_0_416_0_2_2_2_2

New Line.l(r:p5udm44945-p5ulv71905) Units=km Length=0.032965 bus1=p5udm44945.1.2 bus2=p5ulv71905.1.2 switch=n enabled=y phases=2 Linecode=1P_OH_AL_4/0_Zuzara_0_416_0_2_2_2_2

New Line.l(r:p5udm44945-p5udt15780lv) Units=km Length=0.017503 bus1=p5udt15780lv.1.2 bus2=p5udm44945.1.2 switch=n enabled=y phases=2 Linecode=1P_OH_AL_2/0_Rucina_0_416_0_2_2_2_2

New Line.l(r:p5udt16136lv-p5ulv29456) Units=km Length=0.0162735 bus1=p5udt16136lv.1.2 bus2=p5ulv29456.1.2 switch=n enabled=y phases=2 Linecode=1P_OH_AL_2/0_Rucina_0_416_0_2_2_2_2

New Line.l(r:p5udt16136lv-p5ulv38301) Units=km Length=0.0195764 bus1=p5udt16136lv.1.2 bus2=p5ulv38301.1.2 switch=n enabled=y phases=2 Linecode=1P_OH_AL_2/0_Rucina_0_416_0_2_2_2_2

New Line.l(r:p5udt16136lv-p5ulv41021) Units=km Length=0.0556557 bus1=p5udt16136lv.1.2 bus2=p5ulv41021.1.2 switch=n enabled=y phases=2 Linecode=1P_OH_AL_4/0_Zuzara_0_416_0_2_2_2_2

New Line.l(r:p5udm45986-p5ulv67946) Units=km Length=0.0265918 bus1=p5udm45986.1.2 bus2=p5ulv67946.1.2 switch=n enabled=y phases=2 Linecode=1P_OH_AL_2/0_Rucina_0_416_0_2_2_2_2

New Line.l(r:p5udm45986-p5udt16136lv) Units=km Length=0.03222640000000001 bus1=p5udt16136lv.1.2 bus2=p5udm45986.1.2 switch=n enabled=y phases=2 Linecode=1P_OH_AL_4/0_Zuzara_0_416_0_2_2_2_2

New Line.l(r:p5udt16155lv-p5ulv29479) Units=km Length=0.0165231 bus1=p5udt16155lv.1.2 bus2=p5ulv29479.1.2 switch=n enabled=y phases=2 Linecode=1P_OH_AL_2/0_Rucina_0_416_0_2_2_2_2

New Line.l(r:p5udt16504lv-p5ulv30029) Units=km Length=0.0192594 bus1=p5udt16504lv.1.2 bus2=p5ulv30029.1.2 switch=n enabled=y phases=2 Linecode=1P_OH_AL_2/0_Rucina_0_416_0_2_2_2_2

New Line.l(r:p5udt16504lv-p5ulv69077) Units=km Length=0.0169655 bus1=p5udt16504lv.1.2 bus2=p5ulv69077.1.2 switch=n enabled=y phases=2 Linecode=1P_OH_AL_2/0_Rucina_0_416_0_2_2_2_2

New Line.l(r:p5udt16833lv-p5ulv30554) Units=km Length=0.0212067 bus1=p5udt16833lv.1.2 bus2=p5ulv30554.1.2 switch=n enabled=y phases=2 Linecode=1P_OH_AL_2/0_Rucina_0_416_0_2_2_2_2

New Line.l(r:p5udt16834lv-p5ulv30555) Units=km Length=0.0168194 bus1=p5udt16834lv.1.2 bus2=p5ulv30555.1.2 switch=n enabled=y phases=2 Linecode=1P_OH_AL_2/0_Rucina_0_416_0_2_2_2_2

New Line.l(r:p5udt16851lv-p5ulv30575) Units=km Length=0.0163099 bus1=p5udt16851lv.1.2 bus2=p5ulv30575.1.2 switch=n enabled=y phases=2 Linecode=1P_OH_AL_2/0_Rucina_0_416_0_2_2_2_2

New Line.l(r:p5udm47960-p5ulv30576) Units=km Length=0.0172055 bus1=p5udm47960.1.2 bus2=p5ulv30576.1.2 switch=n enabled=y phases=2 Linecode=1P_OH_AL_2/0_Rucina_0_416_0_2_2_2_2

New Line.l(r:p5udm47960-p5udt16852lv) Units=km Length=0.0235862 bus1=p5udt16852lv.1.2 bus2=p5udm47960.1.2 switch=n enabled=y phases=2 Linecode=1P_OH_AL_2/0_Rucina_0_416_0_2_2_2_2

New Line.l(r:p5udm47961-p5ulv41614) Units=km Length=0.0162086 bus1=p5udm47961.1.2 bus2=p5ulv41614.1.2 switch=n enabled=y phases=2 Linecode=1P_OH_AL_2/0_Rucina_0_416_0_2_2_2_2

New Line.l(r:p5udm47961-p5ulv60187) Units=km Length=0.014378700000000001 bus1=p5udm47961.1.2 bus2=p5ulv60187.1.2 switch=n enabled=y phases=2 Linecode=1P_OH_AL_2/0_Rucina_0_416_0_2_2_2_2

New Line.l(r:p5udm47961-p5udt16852lv) Units=km Length=0.0133664 bus1=p5udt16852lv.1.2 bus2=p5udm47961.1.2 switch=n enabled=y phases=2 Linecode=1P_OH_AL_2/0_Rucina_0_416_0_2_1_2_2_2

New Line.l(r:p5udt16853lv-p5ulv30577) Units=km Length=0.0112855 bus1=p5udt16853lv.1.2 bus2=p5ulv30577.1.2 switch=n enabled=y phases=2 Linecode=1P_OH_AL_2/0_Rucina_0_416_0_2_2_2_2

New Line.l(r:p5udt16853lv-p5ulv59009) Units=km Length=0.0203258 bus1=p5udt16853lv.1.2 bus2=p5ulv59009.1.2 switch=n enabled=y phases=2 Linecode=1P_OH_AL_2/0_Rucina_0_416_0_2_2_2_2

New Line.l(r:p5udm47965-p5ulv30578) Units=km Length=0.0152949 bus1=p5udm47965.1.2 bus2=p5ulv30578.1.2 switch=n enabled=y phases=2 Linecode=1P_OH_AL_2/0_Rucina_0_416_0_2_2_2_2

New Line.l(r:p5udm47965-p5ulv36078) Units=km Length=0.015068200000000002 bus1=p5udm47965.1.2 bus2=p5ulv36078.1.2 switch=n enabled=y phases=2 Linecode=1P_OH_AL_2/0_Rucina_0_416_0_2_2_2_2

New Line.l(r:p5udm47967-p5ulv47729) Units=km Length=0.0149267 bus1=p5udm47967.1.2 bus2=p5ulv47729.1.2 switch=n enabled=y phases=2 Linecode=1P_OH_AL_2/0_Rucina_0_416_0_2_2_2_2

New Line.l(r:p5udm47965-p5udm47967) Units=km Length=0.0144621 bus1=p5udm47965.1.2 bus2=p5udm47967.1.2 switch=n enabled=y phases=2 Linecode=1P_OH_AL_2/0_Rucina_0_416_0_2_2_2_2

New Line.l(r:p5udm47965-p5udt16854lv) Units=km Length=0.0144609 bus1=p5udt16854lv.1.2 bus2=p5udm47965.1.2 switch=n enabled=y phases=2 Linecode=1P_OH_AL_2/0_Rucina_0_416_0_2_1_2_2_2

New Line.l(r:p5udm47968-p5ulv65230) Units=km Length=0.0122647 bus1=p5udm47968.1.2 bus2=p5ulv65230.1.2 switch=n enabled=y phases=2 Linecode=1P_OH_AL_2/0_Rucina_0_416_0_2_2_2_2

New Line.l(r:p5udm47968-p5udt16854lv) Units=km Length=0.0919317 bus1=p5udt16854lv.1.2 bus2=p5udm47968.1.2 switch=n enabled=y phases=2 Linecode=1P_OH_AL_4/0_Zuzara_0_416_0_2_2_2_2

New Line.l(r:p5udt17207lv-p5ulv31133) Units=km Length=0.0157612 bus1=p5udt17207lv.1.2 bus2=p5ulv31133.1.2 switch=n enabled=y phases=2 Linecode=1P_OH_AL_2/0_Rucina_0_416_0_2_2_2_2

New Line.l(r:p5udt17207lv-p5ulv33263) Units=km Length=0.0519814 bus1=p5udt17207lv.1.2 bus2=p5ulv33263.1.2 switch=n enabled=y phases=2 Linecode=1P_OH_AL_4/0_Zuzara_0_416_0_2_2_2_2

New Line.l(r:p5udt17208lv-p5ulv31134) Units=km Length=0.019754300000000002 bus1=p5udt17208lv.1.2 bus2=p5ulv31134.1.2 switch=n enabled=y phases=2 Linecode=1P_OH_AL_2/0_Rucina_0_416_0_2_2_2_2

New Line.l(r:p5udt17507lv-p5ulv31636) Units=km Length=0.0300763 bus1=p5udt17507lv.1.2 bus2=p5ulv31636.1.2 switch=n enabled=y phases=2 Linecode=1P_OH_AL_4/0_Zuzara_0_416_0_2_2_2_2

New Line.l(r:p5udt17508lv-p5ulv31637) Units=km Length=0.025099 bus1=p5udt17508lv.1.2 bus2=p5ulv31637.1.2 switch=n enabled=y phases=2 Linecode=1P_OH_AL_2/0_Rucina_0_416_0_2_2_2_2

New Line.l(r:p5udt17526lv-p5ulv31659) Units=km Length=0.0183388 bus1=p5udt17526lv.1.2 bus2=p5ulv31659.1.2 switch=n enabled=y phases=2 Linecode=1P_OH_AL_2/0_Rucina_0_416_0_2_2_2_2

New Line.l(r:p5udt18138lv-p5ulv32704) Units=km Length=0.0393064 bus1=p5udt18138lv.1.2 bus2=p5ulv32704.1.2 switch=n enabled=y phases=2 Linecode=1P_OH_AL_4/0_Zuzara_0_416_0_2_2_2_2

New Line.l(r:p5udt18438lv-p5ulv33242) Units=km Length=0.0362969 bus1=p5udt18438lv.1.2 bus2=p5ulv33242.1.2 switch=n enabled=y phases=2 Linecode=1P_OH_AL_4/0_Zuzara_0_416_0_2_2_2_2

New Line.l(r:p5udt18438lv-p5ulv51677) Units=km Length=0.0244418 bus1=p5udt18438lv.1.2 bus2=p5ulv51677.1.2 switch=n enabled=y phases=2 Linecode=1P_OH_AL_2/0_Rucina_0_416_0_2_2_2_2

New Line.l(r:p5udt18438lv-p5ulv66278) Units=km Length=0.0345694 bus1=p5udt18438lv.1.2 bus2=p5ulv66278.1.2 switch=n enabled=y phases=2 Linecode=1P_OH_AL_4/0_Zuzara_0_416_0_2_2_2_2

New Line.l(r:p5udt18438lv-p5ulv69051) Units=km Length=0.0259937 bus1=p5udt18438lv.1.2 bus2=p5ulv69051.1.2 switch=n enabled=y phases=2 Linecode=1P_OH_AL_2/0_Rucina_0_416_0_2_2_2_2

New Line.l(r:p5udt18453lv-p5ulv33264) Units=km Length=0.0323447 bus1=p5udt18453lv.1.2 bus2=p5ulv33264.1.2 switch=n enabled=y phases=2 Linecode=1P_OH_AL_4/0_Zuzara_0_416_0_2_2_2_2

New Line.l(r:p5udt18453lv-p5ulv75800) Units=km Length=0.0287481 bus1=p5udt18453lv.1.2 bus2=p5ulv75800.1.2 switch=n enabled=y phases=2 Linecode=1P_OH_AL_4/0_Zuzara_0_416_0_2_2_2_2

New Line.l(r:p5udm52052-p5ulv72467) Units=km Length=0.0511247 bus1=p5udm52052.1.2 bus2=p5ulv72467.1.2 switch=n enabled=y phases=2 Linecode=1P_OH_AL_4/0_Zuzara_0_416_0_2_2_2_2

New Line.l(r:p5udm52052-p5udt18453lv) Units=km Length=0.013286100000000002 bus1=p5udt18453lv.1.2 bus2=p5udm52052.1.2 switch=n enabled=y phases=2 Linecode=1P_OH_AL_2/0_Rucina_0_416_0_2_2_2_2

New Line.l(r:p5udt18796lv-p5ulv33852) Units=km Length=0.0152923 bus1=p5udt18796lv.1.2 bus2=p5ulv33852.1.2 switch=n enabled=y phases=2 Linecode=1P_OH_AL_2/0_Rucina_0_416_0_2_2_2_2

New Line.l(r:p5udt18797lv-p5ulv33853) Units=km Length=0.04891620000000001 bus1=p5udt18797lv.1.2 bus2=p5ulv33853.1.2 switch=n enabled=y phases=2 Linecode=1P_OH_AL_4/0_Zuzara_0_416_0_2_2_2_2

New Line.l(r:p5udt18797lv-p5ulv64095) Units=km Length=0.0411597 bus1=p5udt18797lv.1.2 bus2=p5ulv64095.1.2 switch=n enabled=y phases=2 Linecode=1P_OH_AL_4/0_Zuzara_0_416_0_2_2_2_2

New Line.l(r:p5udm52916-p5ulv55592) Units=km Length=0.0175059 bus1=p5udm52916.1.2 bus2=p5ulv55592.1.2 switch=n enabled=y phases=2 Linecode=1P_OH_AL_2/0_Rucina_0_416_0_2_2_2_2

New Line.l(r:p5udm52916-p5ulv71308) Units=km Length=0.018627100000000004 bus1=p5udm52916.1.2 bus2=p5ulv71308.1.2 switch=n enabled=y phases=2 Linecode=1P_OH_AL_2/0_Rucina_0_416_0_2_2_2_2

New Line.l(r:p5udm52916-p5udt18797lv) Units=km Length=0.06580190000000001 bus1=p5udt18797lv.1.2 bus2=p5udm52916.1.2 switch=n enabled=y phases=2 Linecode=1P_OH_AL_4/0_Zuzara_0_416_0_2_2_2_2

New Line.l(r:p5udt18798lv-p5ulv33854) Units=km Length=0.0208005 bus1=p5udt18798lv.1.2 bus2=p5ulv33854.1.2 switch=n enabled=y phases=2 Linecode=1P_OH_AL_2/0_Rucina_0_416_0_2_2_2_2

New Line.l(r:p5udt18811lv-p5ulv33874) Units=km Length=0.0151117 bus1=p5udt18811lv.1.2 bus2=p5ulv33874.1.2 switch=n enabled=y phases=2 Linecode=1P_OH_AL_2/0_Rucina_0_416_0_2_2_2_2

New Line.l(r:p5udt18812lv-p5ulv33875) Units=km Length=0.0091202 bus1=p5udt18812lv.1.2 bus2=p5ulv33875.1.2 switch=n enabled=y phases=2 Linecode=1P_OH_AL_2/0_Rucina_0_416_0_2_2_2_2

New Line.l(r:p5udt19114lv-p5ulv34407) Units=km Length=0.0889313 bus1=p5udt19114lv.1.2 bus2=p5ulv34407.1.2 switch=n enabled=y phases=2 Linecode=1P_OH_AL_4/0_Zuzara_0_416_0_2_2_2_2

New Line.l(r:p5udt19114lv-p5ulv39934) Units=km Length=0.0549198 bus1=p5udt19114lv.1.2 bus2=p5ulv39934.1.2 switch=n enabled=y phases=2 Linecode=1P_OH_AL_4/0_Zuzara_0_416_0_2_2_2_2

New Line.l(r:p5udm53659-p5ulv34408) Units=km Length=0.0103063 bus1=p5udm53659.1.2 bus2=p5ulv34408.1.2 switch=n enabled=y phases=2 Linecode=1P_OH_AL_2/0_Rucina_0_416_0_2_2_2_2

New Line.l(r:p5udm53659-p5ulv56801) Units=km Length=0.0223843 bus1=p5udm53659.1.2 bus2=p5ulv56801.1.2 switch=n enabled=y phases=2 Linecode=1P_OH_AL_2/0_Rucina_0_416_0_2_2_2_2

New Line.l(r:p5udm53659-p5udt19115lv) Units=km Length=0.030729500000000003 bus1=p5udt19115lv.1.2 bus2=p5udm53659.1.2 switch=n enabled=y phases=2 Linecode=1P_OH_AL_4/0_Zuzara_0_416_0_2_2_2_2

New Line.l(r:p5udm53661-p5ulv60755) Units=km Length=0.0392342 bus1=p5udm53661.1.2 bus2=p5ulv60755.1.2 switch=n enabled=y phases=2 Linecode=1P_OH_AL_4/0_Zuzara_0_416_0_2_2_2_2

New Line.l(r:p5udm53661-p5udt19115lv) Units=km Length=0.0206104 bus1=p5udt19115lv.1.2 bus2=p5udm53661.1.2 switch=n enabled=y phases=2 Linecode=1P_OH_AL_2/0_Rucina_0_416_0_2_2_2_2

New Line.l(r:p5udt19398lv-p5ulv34927) Units=km Length=0.0173599 bus1=p5udt19398lv.1.2 bus2=p5ulv34927.1.2 switch=n enabled=y phases=2 Linecode=1P_OH_AL_2/0_Rucina_0_416_0_2_2_2_2

New Line.l(r:p5udt19399lv-p5ulv34928) Units=km Length=0.0137648 bus1=p5udt19399lv.1.2 bus2=p5ulv34928.1.2 switch=n enabled=y phases=2 Linecode=1P_OH_AL_2/0_Rucina_0_416_0_2_2_2_2

New Line.l(r:p5udm54359-p5ulv56201) Units=km Length=0.0237185 bus1=p5udm54359.1.2 bus2=p5ulv56201.1.2 switch=n enabled=y phases=2 Linecode=1P_OH_AL_2/0_Rucina_0_416_0_2_2_2_2

New Line.l(r:p5udm54359-p5udt19399lv) Units=km Length=0.0103089 bus1=p5udt19399lv.1.2 bus2=p5udm54359.1.2 switch=n enabled=y phases=2 Linecode=1P_OH_AL_2/0_Rucina_0_416_0_2_2_2_2

New Line.l(r:p5udt19712lv-p5ulv35481) Units=km Length=0.0146356 bus1=p5udt19712lv.1.2 bus2=p5ulv35481.1.2 switch=n enabled=y phases=2 Linecode=1P_OH_AL_2/0_Rucina_0_416_0_2_2_2_2

New Line.l(r:p5udt19712lv-p5ulv64675) Units=km Length=0.0218199 bus1=p5udt19712lv.1.2 bus2=p5ulv64675.1.2 switch=n enabled=y phases=2 Linecode=1P_OH_AL_2/0_Rucina_0_416_0_2_2_2_2

New Line.l(r:p5udt20006lv-p5ulv36047) Units=km Length=0.0384103 bus1=p5udt20006lv.1.2 bus2=p5ulv36047.1.2 switch=n enabled=y phases=2 Linecode=1P_OH_AL_4/0_Zuzara_0_416_0_2_2_2_2

New Line.l(r:p5udt20030lv-p5ulv36076) Units=km Length=0.0321056 bus1=p5udt20030lv.1.2 bus2=p5ulv36076.1.2 switch=n enabled=y phases=2 Linecode=1P_OH_AL_4/0_Zuzara_0_416_0_2_2_2_2

New Line.l(r:p5udt20330lv-p5ulv36659) Units=km Length=0.0217257 bus1=p5udt20330lv.1.2 bus2=p5ulv36659.1.2 switch=n enabled=y phases=2 Linecode=1P_OH_AL_2/0_Rucina_0_416_0_2_2_2_2

New Line.l(r:p5udt20614lv-p5ulv37182) Units=km Length=0.0174536 bus1=p5udt20614lv.1.2 bus2=p5ulv37182.1.2 switch=n enabled=y phases=2 Linecode=1P_OH_AL_2/0_Rucina_0_416_0_2_2_2_2

New Line.l(r:p5udt20615lv-p5ulv37184) Units=km Length=0.00910464 bus1=p5udt20615lv.1.2 bus2=p5ulv37184.1.2 switch=n enabled=y phases=2 Linecode=1P_OH_AL_2/0_Rucina_0_416_0_2_2_2_2

New Line.l(r:p5udt21168lv-p5ulv38302) Units=km Length=0.0143547 bus1=p5udt21168lv.1.2 bus2=p5ulv38302.1.2 switch=n enabled=y phases=2 Linecode=1P_OH_AL_2/0_Rucina_0_416_0_2_2_2_2

New Line.l(r:p5udt21184lv-p5ulv38329) Units=km Length=0.026172500000000005 bus1=p5udt21184lv.1.2 bus2=p5ulv38329.1.2 switch=n enabled=y phases=2 Linecode=1P_OH_AL_2/0_Rucina_0_416_0_2_2_2_2

New Line.l(r:p5udt21184lv-p5ulv49992) Units=km Length=0.0303753 bus1=p5udt21184lv.1.2 bus2=p5ulv49992.1.2 switch=n enabled=y phases=2 Linecode=1P_OH_AL_4/0_Zuzara_0_416_0_2_2_2_2

New Line.l(r:p5udt21424lv-p5ulv38852) Units=km Length=0.0104974 bus1=p5udt21424lv.1.2 bus2=p5ulv38852.1.2 switch=n enabled=y phases=2 Linecode=1P_OH_AL_2/0_Rucina_0_416_0_2_2_2_2

New Line.l(r:p5udt21671lv-p5ulv39397) Units=km Length=0.0123703 bus1=p5udt21671lv.1.2 bus2=p5ulv39397.1.2 switch=n enabled=y phases=2 Linecode=1P_OH_AL_2/0_Rucina_0_416_0_2_2_2_2

New Line.l(r:p5udt21906lv-p5ulv39909) Units=km Length=0.0210403 bus1=p5udt21906lv.1.2 bus2=p5ulv39909.1.2 switch=n enabled=y phases=2 Linecode=1P_OH_AL_2/0_Rucina_0_416_0_2_2_2_2

New Line.l(r:p5udt21925lv-p5ulv39932) Units=km Length=0.0251803 bus1=p5udt21925lv.1.2 bus2=p5ulv39932.1.2 switch=n enabled=y phases=2 Linecode=1P_OH_AL_2/0_Rucina_0_416_0_2_2_2_2

New Line.l(r:p5udt21925lv-p5ulv70797) Units=km Length=0.0251803 bus1=p5udt21925lv.1.2 bus2=p5ulv70797.1.2 switch=n enabled=y phases=2 Linecode=1P_OH_AL_2/0_Rucina_0_416_0_2_2_2_2

New Line.l(r:p5udt22436lv-p5ulv41020) Units=km Length=0.0224999 bus1=p5udt22436lv.1.2 bus2=p5ulv41020.1.2 switch=n enabled=y phases=2 Linecode=1P_OH_AL_2/0_Rucina_0_416_0_2_2_2_2

New Line.l(r:p5udt22457lv-p5ulv41045) Units=km Length=0.0157837 bus1=p5udt22457lv.1.2 bus2=p5ulv41045.1.2 switch=n enabled=y phases=2 Linecode=1P_OH_AL_2/0_Rucina_0_416_0_2_2_2_2

New Line.l(r:p5udt22959lv-p5ulv42198) Units=km Length=0.0298772 bus1=p5udt22959lv.1.2 bus2=p5ulv42198.1.2 switch=n enabled=y phases=2 Linecode=1P_OH_AL_4/0_Zuzara_0_416_0_2_2_2_2

New Line.l(r:p5udt22960lv-p5ulv50551) Units=km Length=0.0191807 bus1=p5udt22960lv.1.2 bus2=p5ulv50551.1.2 switch=n enabled=y phases=2 Linecode=1P_OH_AL_2/0_Rucina_0_416_0_2_2_2_2

New Line.l(r:p5udm62059-p5ulv42199) Units=km Length=0.057522300000000005 bus1=p5udm62059.1.2 bus2=p5ulv42199.1.2 switch=n enabled=y phases=2 Linecode=1P_OH_AL_4/0_Zuzara_0_416_0_2_2_2_2

New Line.l(r:p5udm62059-p5udt22960lv) Units=km Length=0.0176606 bus1=p5udt22960lv.1.2 bus2=p5udm62059.1.2 switch=n enabled=y phases=2 Linecode=1P_OH_AL_2/0_Rucina_0_416_0_2_2_2_2

New Line.l(r:p5udt22961lv-p5ulv42201) Units=km Length=0.0230027 bus1=p5udt22961lv.1.2 bus2=p5ulv42201.1.2 switch=n enabled=y phases=2 Linecode=1P_OH_AL_2/0_Rucina_0_416_0_2_2_2_2

New Line.l(r:p5udt23643lv-p5ulv43840) Units=km Length=0.0165606 bus1=p5udt23643lv.1.2 bus2=p5ulv43840.1.2 switch=n enabled=y phases=2 Linecode=1P_OH_AL_2/0_Rucina_0_416_0_2_2_2_2

New Line.l(r:p5udt24124lv-p5ulv44945) Units=km Length=0.031216200000000003 bus1=p5udt24124lv.1.2 bus2=p5ulv44945.1.2 switch=n enabled=y phases=2 Linecode=1P_OH_AL_4/0_Zuzara_0_416_0_2_2_2_2

New Line.l(r:p5udt24132lv-p5ulv44964) Units=km Length=0.00816199 bus1=p5udt24132lv.1.2 bus2=p5ulv44964.1.2 switch=n enabled=y phases=2 Linecode=1P_OH_AL_2/0_Rucina_0_416_0_2_2_2_2

New Line.l(r:p5udt24359lv-p5ulv45527) Units=km Length=0.0341572 bus1=p5udt24359lv.1.2 bus2=p5ulv45527.1.2 switch=n enabled=y phases=2 Linecode=1P_OH_AL_4/0_Zuzara_0_416_0_2_2_2_2

New Line.l(r:p5udt24372lv-p5ulv45549) Units=km Length=0.0383938 bus1=p5udt24372lv.1.2 bus2=p5ulv45549.1.2 switch=n enabled=y phases=2 Linecode=1P_OH_AL_4/0_Zuzara_0_416_0_2_2_2_2

New Line.l(r:p5udt24373lv-p5ulv45550) Units=km Length=0.0295143 bus1=p5udt24373lv.1.2 bus2=p5ulv45550.1.2 switch=n enabled=y phases=2 Linecode=1P_OH_AL_4/0_Zuzara_0_416_0_2_2_2_2

New Line.l(r:p5udm65548-p5ulv46673) Units=km Length=0.06993510000000001 bus1=p5udm65548.1.2 bus2=p5ulv46673.1.2 switch=n enabled=y phases=2 Linecode=1P_OH_AL_4/0_Zuzara_0_416_0_2_2_2_2

New Line.l(r:p5udm65548-p5udt24803lv) Units=km Length=0.0194385 bus1=p5udt24803lv.1.2 bus2=p5udm65548.1.2 switch=n enabled=y phases=2 Linecode=1P_OH_AL_2/0_Rucina_0_416_0_2_2_2_2

New Line.l(r:p5udm65549-p5ulv60184) Units=km Length=0.0717825 bus1=p5udm65549.1.2 bus2=p5ulv60184.1.2 switch=n enabled=y phases=2 Linecode=1P_OH_AL_4/0_Zuzara_0_416_0_2_2_2_2

New Line.l(r:p5udm65549-p5udt24803lv) Units=km Length=0.0194385 bus1=p5udt24803lv.1.2 bus2=p5udm65549.1.2 switch=n enabled=y phases=2 Linecode=1P_OH_AL_2/0_Rucina_0_416_0_2_2_2_2

New Line.l(r:p5udm65555-p5ulv46676) Units=km Length=0.016073 bus1=p5udm65555.1.2 bus2=p5ulv46676.1.2 switch=n enabled=y phases=2 Linecode=1P_OH_AL_2/0_Rucina_0_416_0_2_2_2_2

New Line.l(r:p5udm65555-p5udt24806lv) Units=km Length=0.0546507 bus1=p5udt24806lv.1.2 bus2=p5udm65555.1.2 switch=n enabled=y phases=2 Linecode=1P_OH_AL_4/0_Zuzara_0_416_0_2_2_2_2

New Line.l(r:p5udm65556-p5ulv48267) Units=km Length=0.016801 bus1=p5udm65556.1.2 bus2=p5ulv48267.1.2 switch=n enabled=y phases=2 Linecode=1P_OH_AL_2/0_Rucina_0_416_0_2_2_2_2

New Line.l(r:p5udm65556-p5ulv57902) Units=km Length=0.0107551 bus1=p5udm65556.1.2 bus2=p5ulv57902.1.2 switch=n enabled=y phases=2 Linecode=1P_OH_AL_2/0_Rucina_0_416_0_2_2_2_2

New Line.l(r:p5udm65556-p5udt24806lv) Units=km Length=0.023135700000000002 bus1=p5udt24806lv.1.2 bus2=p5udm65556.1.2 switch=n enabled=y phases=2 Linecode=1P_OH_AL_2/0_Rucina_0_416_0_2_2_2_2
