Clear

New Circuit.feeder_p5udt21906-p5uhs27_1247x bus1=p5udt21906-p5uhs27_1247x pu=1.03 basekV=12.47 R1=1e-05 X1=1e-05 R0=1e-05 X0=1e-05

Redirect Transformers.dss
Redirect Loads.dss
Redirect LineCodes.dss
Redirect Lines.dss

Set Voltagebases=[0.2080002494301389, 7.199560000000001]

Calcvoltagebases

Buscoords Buscoords.dss

Solve