New Line.l(r:p1udm1495-p1ulv418) Units=km Length=0.01018 bus1=p1udm1495.1.2 bus2=p1ulv418.1.2 switch=n enabled=y phases=2 Linecode=1P_OH_AL_2/0_Rucina_0_416_0_2_2_2_2

New Line.l(r:p1udm1495-p1udt414lv) Units=km Length=0.0442488 bus1=p1udt414lv.1.2 bus2=p1udm1495.1.2 switch=n enabled=y phases=2 Linecode=1P_OH_AL_4/0_Zuzara_0_416_0_2_2_2_2

New Line.l(r:p1udm1496-p1ulv37786) Units=km Length=0.00773584 bus1=p1udm1496.1.2 bus2=p1ulv37786.1.2 switch=n enabled=y phases=2 Linecode=1P_OH_AL_2/0_Rucina_0_416_0_2_2_2_2

New Line.l(r:p1udm1496-p1udt414lv) Units=km Length=0.0633878 bus1=p1udt414lv.1.2 bus2=p1udm1496.1.2 switch=n enabled=y phases=2 Linecode=1P_OH_AL_4/0_Zuzara_0_416_0_2_2_2_2

New Line.l(r:p1udt415lv-p1ulv419) Units=km Length=0.0240351 bus1=p1udt415lv.1.2 bus2=p1ulv419.1.2 switch=n enabled=y phases=2 Linecode=1P_UG_AL_4/0_Sweetbriar_0_416_0_2_2_2_2

New Line.l(r:p1udm8052-p1ulv2987) Units=km Length=0.0648026 bus1=p1udm8052.1.2 bus2=p1ulv2987.1.2 switch=n enabled=y phases=2 Linecode=1P_UG_AL_4/0_Sweetbriar_0_416_0_2_2_2_2

New Line.l(r:p1udm8052-p1ulv5477) Units=km Length=0.0849169 bus1=p1udm8052.1.2 bus2=p1ulv5477.1.2 switch=n enabled=y phases=2 Linecode=1P_UG_AL_1/0_Brenau_0_416_0_2_2_2_2

New Line.l(r:p1udm8051-p1ulv2344) Units=km Length=0.0235473 bus1=p1udm8051.1.2 bus2=p1ulv2344.1.2 switch=n enabled=y phases=2 Linecode=1P_UG_AL_1/0_Brenau_0_416_0_2_2_2_2

New Line.l(r:p1udm8051-p1udm8052) Units=km Length=0.019065600000000002 bus1=p1udm8052.1.2 bus2=p1udm8051.1.2 switch=n enabled=y phases=2 Linecode=1P_UG_AL_1/0_Brenau_0_416_0_2_2_2_2

New Line.l(r:p1udm8052-p1udt2219lv) Units=km Length=0.00953079 bus1=p1udt2219lv.1.2 bus2=p1udm8052.1.2 switch=n enabled=y phases=2 Linecode=1P_UG_AL_4/0_Sweetbriar_0_416_0_2_2_2_2

New Line.l(r:p1udm8054-p1ulv60186) Units=km Length=0.0205928 bus1=p1udm8054.1.2 bus2=p1ulv60186.1.2 switch=n enabled=y phases=2 Linecode=1P_UG_AL_1/0_Brenau_0_416_0_2_2_2_2

New Line.l(r:p1udm8054-p1udt2219lv) Units=km Length=0.0286004 bus1=p1udt2219lv.1.2 bus2=p1udm8054.1.2 switch=n enabled=y phases=2 Linecode=1P_UG_AL_1/0_Brenau_0_416_0_2_2_2_2

New Line.l(r:p1udt4389lv-p1ulv4853) Units=km Length=0.00954853 bus1=p1udt4389lv.1.2 bus2=p1ulv4853.1.2 switch=n enabled=y phases=2 Linecode=1P_OH_AL_2/0_Rucina_0_416_0_2_2_2_2

New Line.l(r:p1udt6381lv-p1ulv7413) Units=km Length=0.0163137 bus1=p1udt6381lv.1.2 bus2=p1ulv7413.1.2 switch=n enabled=y phases=2 Linecode=1P_OH_AL_2/0_Rucina_0_416_0_2_2_2_2

New Line.l(r:p1udt6382lv-p1ulv7414) Units=km Length=0.0657555 bus1=p1udt6382lv.1.2 bus2=p1ulv7414.1.2 switch=n enabled=y phases=2 Linecode=1P_UG_AL_1/0_Brenau_0_416_0_2_2_2_2

New Line.l(r:p1udt7268lv-p1ulv8656) Units=km Length=0.017407 bus1=p1udt7268lv.1.2 bus2=p1ulv8656.1.2 switch=n enabled=y phases=2 Linecode=1P_UG_AL_1/0_Brenau_0_416_0_2_2_2_2

New Line.l(r:p1udm27564-p1ulv9894) Units=km Length=0.008671520000000002 bus1=p1udm27564.1.2 bus2=p1ulv9894.1.2 switch=n enabled=y phases=2 Linecode=1P_OH_AL_2/0_Rucina_0_416_0_2_2_2_2

New Line.l(r:p1udm27564-p1udt8092lv) Units=km Length=0.0562098 bus1=p1udt8092lv.1.2 bus2=p1udm27564.1.2 switch=n enabled=y phases=2 Linecode=1P_OH_AL_4/0_Zuzara_0_416_0_2_2_2_2

New Line.l(r:p1udm27565-p1ulv14243) Units=km Length=0.0078701 bus1=p1udm27565.1.2 bus2=p1ulv14243.1.2 switch=n enabled=y phases=2 Linecode=1P_OH_AL_2/0_Rucina_0_416_0_2_2_2_2

New Line.l(r:p1udm27566-p1ulv34005) Units=km Length=0.0152884 bus1=p1udm27566.1.2 bus2=p1ulv34005.1.2 switch=n enabled=y phases=2 Linecode=1P_OH_AL_2/0_Rucina_0_416_0_2_2_2_2

New Line.l(r:p1udm27565-p1udm27566) Units=km Length=0.0365523 bus1=p1udm27565.1.2 bus2=p1udm27566.1.2 switch=n enabled=y phases=2 Linecode=1P_OH_AL_4/0_Zuzara_0_416_0_2_2_2_2

New Line.l(r:p1udm27565-p1udt8092lv) Units=km Length=0.0182761 bus1=p1udt8092lv.1.2 bus2=p1udm27565.1.2 switch=n enabled=y phases=2 Linecode=1P_OH_AL_2/0_Rucina_0_416_0_2_2_2_2

New Line.l(r:p1udt9251lv-p1ulv11736) Units=km Length=0.011219300000000001 bus1=p1udt9251lv.1.2 bus2=p1ulv11736.1.2 switch=n enabled=y phases=2 Linecode=1P_UG_AL_1/0_Brenau_0_416_0_2_2_2_2

New Line.l(r:p1udt10004lv-p1ulv12988) Units=km Length=0.0176495 bus1=p1udt10004lv.1.2 bus2=p1ulv12988.1.2 switch=n enabled=y phases=2 Linecode=1P_UG_AL_4/0_Sweetbriar_0_416_0_2_2_2_2

New Line.l(r:p1udm34563-p1ulv13613) Units=km Length=0.0251117 bus1=p1udm34563.1.2 bus2=p1ulv13613.1.2 switch=n enabled=y phases=2 Linecode=1P_OH_AL_2/0_Rucina_0_416_0_2_2_2_2

New Line.l(r:p1udm34563-p1udt10380lv) Units=km Length=0.0344821 bus1=p1udt10380lv.1.2 bus2=p1udm34563.1.2 switch=n enabled=y phases=2 Linecode=1P_OH_AL_4/0_Zuzara_0_416_0_2_2_2_2

New Line.l(r:p1udm34564-p1ulv47864) Units=km Length=0.0117812 bus1=p1udm34564.1.2 bus2=p1ulv47864.1.2 switch=n enabled=y phases=2 Linecode=1P_OH_AL_2/0_Rucina_0_416_0_2_2_2_2

New Line.l(r:p1udm34564-p1udt10380lv) Units=km Length=0.0344863 bus1=p1udt10380lv.1.2 bus2=p1udm34564.1.2 switch=n enabled=y phases=2 Linecode=1P_OH_AL_4/0_Zuzara_0_416_0_2_2_2_2

New Line.l(r:p1udt11100lv-p1ulv14872) Units=km Length=0.005864170000000001 bus1=p1udt11100lv.1.2 bus2=p1ulv14872.1.2 switch=n enabled=y phases=2 Linecode=1P_OH_AL_2/0_Rucina_0_416_0_2_2_2_2

New Line.l(r:p1udt12764lv-p1ulv18063) Units=km Length=0.0107914 bus1=p1udt12764lv.1.2 bus2=p1ulv18063.1.2 switch=n enabled=y phases=2 Linecode=1P_OH_AL_2/0_Rucina_0_416_0_2_2_2_2

New Line.l(r:p1udt14543lv-p1ulv21905) Units=km Length=0.0199023 bus1=p1udt14543lv.1.2 bus2=p1ulv21905.1.2 switch=n enabled=y phases=2 Linecode=1P_UG_AL_4/0_Sweetbriar_0_416_0_2_2_2_2

New Line.l(r:p1udt15057lv-p1ulv23182) Units=km Length=0.0445658 bus1=p1udt15057lv.1.2 bus2=p1ulv23182.1.2 switch=n enabled=y phases=2 Linecode=1P_OH_AL_4/0_Zuzara_0_416_0_2_2_2_2

New Line.l(r:p1udt15057lv-p1ulv49103) Units=km Length=0.06916600000000002 bus1=p1udt15057lv.1.2 bus2=p1ulv49103.1.2 switch=n enabled=y phases=2 Linecode=1P_OH_AL_4/0_Zuzara_0_416_0_2_2_2_2

New Line.l(r:p1udt15324lv-p1ulv23829) Units=km Length=0.0191378 bus1=p1udt15324lv.1.2 bus2=p1ulv23829.1.2 switch=n enabled=y phases=2 Linecode=1P_UG_AL_4/0_Sweetbriar_0_416_0_2_2_2_2

New Line.l(r:p1udm52322-p1ulv29538) Units=km Length=0.03251250000000001 bus1=p1udm52322.1.2 bus2=p1ulv29538.1.2 switch=n enabled=y phases=2 Linecode=1P_OH_AL_4/0_Zuzara_0_416_0_2_2_2_2

New Line.l(r:p1udm52322-p1udt17414lv) Units=km Length=0.033947 bus1=p1udt17414lv.1.2 bus2=p1udm52322.1.2 switch=n enabled=y phases=2 Linecode=1P_OH_AL_4/0_Zuzara_0_416_0_2_2_2_2

New Line.l(r:p1udm52323-p1ulv36536) Units=km Length=0.0195706 bus1=p1udm52323.1.2 bus2=p1ulv36536.1.2 switch=n enabled=y phases=2 Linecode=1P_OH_AL_2/0_Rucina_0_416_0_2_2_2_2

New Line.l(r:p1udm52323-p1udt17414lv) Units=km Length=0.033343 bus1=p1udt17414lv.1.2 bus2=p1udm52323.1.2 switch=n enabled=y phases=2 Linecode=1P_OH_AL_4/0_Zuzara_0_416_0_2_2_2_2

New Line.l(r:p1udm54995-p1ulv34003) Units=km Length=0.0198611 bus1=p1udm54995.1.2 bus2=p1ulv34003.1.2 switch=n enabled=y phases=2 Linecode=1P_UG_AL_4/0_Sweetbriar_0_416_0_2_2_2_2

New Line.l(r:p1udm54995-p1udt18790lv) Units=km Length=0.01939 bus1=p1udt18790lv.1.2 bus2=p1udm54995.1.2 switch=n enabled=y phases=2 Linecode=1P_UG_AL_4/0_Sweetbriar_0_416_0_2_2_2_2

New Line.l(r:p1udm54996-p1ulv46647) Units=km Length=0.0205696 bus1=p1udm54996.1.2 bus2=p1ulv46647.1.2 switch=n enabled=y phases=2 Linecode=1P_UG_AL_1/0_Brenau_0_416_0_2_2_2_2

New Line.l(r:p1udm54996-p1udt18790lv) Units=km Length=0.0484836 bus1=p1udt18790lv.1.2 bus2=p1udm54996.1.2 switch=n enabled=y phases=2 Linecode=1P_UG_AL_1/0_Brenau_0_416_0_2_2_2_2

New Line.l(r:p1udt18984lv-p1ulv34644) Units=km Length=0.0174164 bus1=p1udt18984lv.1.2 bus2=p1ulv34644.1.2 switch=n enabled=y phases=2 Linecode=1P_UG_AL_2/0_Converse_0_416_0_2_2_2_2

New Line.l(r:p1udt19165lv-p1ulv35267) Units=km Length=0.0470949 bus1=p1udt19165lv.1.2 bus2=p1ulv35267.1.2 switch=n enabled=y phases=2 Linecode=1P_UG_AL_1/0_Brenau_0_416_0_2_2_2_2

New Line.l(r:p1udt19355lv-p1ulv35923) Units=km Length=0.0828309 bus1=p1udt19355lv.1.2 bus2=p1ulv35923.1.2 switch=n enabled=y phases=2 Linecode=1P_UG_AL_1/0_Brenau_0_416_0_2_2_2_2

New Line.l(r:p1udm56345-p1ulv36537) Units=km Length=0.00638624 bus1=p1udm56345.1.2 bus2=p1ulv36537.1.2 switch=n enabled=y phases=2 Linecode=1P_OH_AL_2/0_Rucina_0_416_0_2_2_2_2

New Line.l(r:p1udm56345-p1udt19535lv) Units=km Length=0.0155361 bus1=p1udt19535lv.1.2 bus2=p1udm56345.1.2 switch=n enabled=y phases=2 Linecode=1P_OH_AL_2/0_Rucina_0_416_0_2_2_2_2

New Line.l(r:p1udm56346-p1ulv52206) Units=km Length=0.0136199 bus1=p1udm56346.1.2 bus2=p1ulv52206.1.2 switch=n enabled=y phases=2 Linecode=1P_OH_AL_2/0_Rucina_0_416_0_2_2_2_2

New Line.l(r:p1udm56346-p1udt19535lv) Units=km Length=0.0155233 bus1=p1udt19535lv.1.2 bus2=p1udm56346.1.2 switch=n enabled=y phases=2 Linecode=1P_OH_AL_2/0_Rucina_0_416_0_2_2_2_2

New Line.l(r:p1udt19715lv-p1ulv37173) Units=km Length=0.028198500000000005 bus1=p1udt19715lv.1.2 bus2=p1ulv37173.1.2 switch=n enabled=y phases=2 Linecode=1P_UG_AL_4/0_Sweetbriar_0_416_0_2_2_2_2

New Line.l(r:p1udt19715lv-p1ulv60184) Units=km Length=0.0879371 bus1=p1udt19715lv.1.2 bus2=p1ulv60184.1.2 switch=n enabled=y phases=2 Linecode=1P_UG_AL_1/0_Brenau_0_416_0_2_2_2_2

New Line.l(r:p1udt19716lv-p1ulv37174) Units=km Length=0.023131000000000002 bus1=p1udt19716lv.1.2 bus2=p1ulv37174.1.2 switch=n enabled=y phases=2 Linecode=1P_UG_AL_4/0_Sweetbriar_0_416_0_2_2_2_2

New Line.l(r:p1udt20209lv-p1ulv39057) Units=km Length=0.0210287 bus1=p1udt20209lv.1.2 bus2=p1ulv39057.1.2 switch=n enabled=y phases=2 Linecode=1P_OH_AL_2/0_Rucina_0_416_0_2_2_2_2

New Line.l(r:p1udt20526lv-p1ulv40330) Units=km Length=0.00882046 bus1=p1udt20526lv.1.2 bus2=p1ulv40330.1.2 switch=n enabled=y phases=2 Linecode=1P_OH_AL_2/0_Rucina_0_416_0_2_2_2_2

New Line.l(r:p1udm58008-p1ulv57766) Units=km Length=0.00873075 bus1=p1udm58008.1.2 bus2=p1ulv57766.1.2 switch=n enabled=y phases=2 Linecode=1P_OH_AL_2/0_Rucina_0_416_0_2_2_2_2

New Line.l(r:p1udm58008-p1udt20526lv) Units=km Length=0.0285685 bus1=p1udt20526lv.1.2 bus2=p1udm58008.1.2 switch=n enabled=y phases=2 Linecode=1P_OH_AL_4/0_Zuzara_0_416_0_2_2_2_2

New Line.l(r:p1udm59925-p1ulv46018) Units=km Length=0.0089011 bus1=p1udm59925.1.2 bus2=p1ulv46018.1.2 switch=n enabled=y phases=2 Linecode=1P_UG_AL_4/0_Sweetbriar_0_416_0_2_2_2_2

New Line.l(r:p1udm59925-p1udt21800lv) Units=km Length=0.0711708 bus1=p1udt21800lv.1.2 bus2=p1udm59925.1.2 switch=n enabled=y phases=2 Linecode=1P_UG_AL_4/0_Sweetbriar_0_416_0_2_2_2_2

New Line.l(r:p1udm59926-p1ulv64599) Units=km Length=0.0184135 bus1=p1udm59926.1.2 bus2=p1ulv64599.1.2 switch=n enabled=y phases=2 Linecode=1P_UG_AL_1/0_Brenau_0_416_0_2_2_2_2

New Line.l(r:p1udm59926-p1udt21800lv) Units=km Length=0.0364343 bus1=p1udt21800lv.1.2 bus2=p1udm59926.1.2 switch=n enabled=y phases=2 Linecode=1P_UG_AL_1/0_Brenau_0_416_0_2_2_2_2

New Line.l(r:p1udt21935lv-p1ulv46648) Units=km Length=0.0133442 bus1=p1udt21935lv.1.2 bus2=p1ulv46648.1.2 switch=n enabled=y phases=2 Linecode=1P_UG_AL_1/0_Brenau_0_416_0_2_2_2_2

New Line.l(r:p1udt22189lv-p1ulv47861) Units=km Length=0.0331135 bus1=p1udt22189lv.1.2 bus2=p1ulv47861.1.2 switch=n enabled=y phases=2 Linecode=1P_OH_AL_4/0_Zuzara_0_416_0_2_2_2_2

New Line.l(r:p1udt22312lv-p1ulv48481) Units=km Length=0.00197408 bus1=p1udt22312lv.1.2 bus2=p1ulv48481.1.2 switch=n enabled=y phases=2 Linecode=1P_OH_AL_4_Periwinkle_0_416_0_2_2_2_2

New Line.l(r:p1udt22444lv-p1ulv49102) Units=km Length=0.0220615 bus1=p1udt22444lv.1.2 bus2=p1ulv49102.1.2 switch=n enabled=y phases=2 Linecode=1P_OH_AL_2/0_Rucina_0_416_0_2_2_2_2

New Line.l(r:p1udt23500lv-p1ulv54765) Units=km Length=0.030399700000000005 bus1=p1udt23500lv.1.2 bus2=p1ulv54765.1.2 switch=n enabled=y phases=2 Linecode=1P_OH_AL_4/0_Zuzara_0_416_0_2_2_2_2

New Line.l(r:p1udt24383lv-p1ulv59574) Units=km Length=0.0178984 bus1=p1udt24383lv.1.2 bus2=p1ulv59574.1.2 switch=n enabled=y phases=2 Linecode=1P_OH_AL_2/0_Rucina_0_416_0_2_2_2_2

New Line.l(r:p1udt24591lv-p1ulv60784) Units=km Length=0.0316643 bus1=p1udt24591lv.1.2 bus2=p1ulv60784.1.2 switch=n enabled=y phases=2 Linecode=1P_OH_AL_4/0_Zuzara_0_416_0_2_2_2_2

New Line.l(r:p1udt25110lv-p1ulv63963) Units=km Length=0.00445457 bus1=p1udt25110lv.1.2 bus2=p1ulv63963.1.2 switch=n enabled=y phases=2 Linecode=1P_OH_AL_2/0_Rucina_0_416_0_2_2_2_2

New Line.l(r:p1udt25288lv-p1ulv65236) Units=km Length=0.014069400000000001 bus1=p1udt25288lv.1.2 bus2=p1ulv65236.1.2 switch=n enabled=y phases=2 Linecode=1P_UG_AL_1/0_Brenau_0_416_0_2_2_2_2

New Line.l(r:p1udt18388-p1udt23500) Units=km Length=0.001 bus1=p1udt18388-p1udt23500x.2 bus2=p1udt23500.2 switch=n enabled=y phases=1 Linecode=1P_OH_AL_ACSR_#2_Sparrow_12_47_0_1_1_1_1

New Line.l(r:p1udt20209-p1udt22312) Units=km Length=0.13833200000000004 bus1=p1udt20209-p1udt22312x.3 bus2=p1udt20209.3 switch=n enabled=y phases=1 Linecode=1P_OH_AL_ACSR_#2_Sparrow_12_47_0_1_1_1_1

New Line.l(r:p1udt21935-p1udt25110) Units=km Length=0.111591 bus1=p1udt21935.1 bus2=p1udt25110.1 switch=n enabled=y phases=1 Linecode=1P_OH_AL_ACSR_#2_Sparrow_12_47_0_1_1_1_1

New Line.l(r:p1udt21935-p1udt24591) Units=km Length=0.244584 bus1=p1udt21935-p1udt24591x.1 bus2=p1udt21935.1 switch=n enabled=y phases=1 Linecode=1P_OH_AL_ACSR_#2_Sparrow_12_47_0_1_1_1_1

New Line.l(r:p1udt22445-p1uhs11_1247) Units=km Length=0.0644671 bus1=p1udt22445-p1uhs11_1247x.1.2.3 bus2=p1udt22445.1.2.3 switch=n enabled=y phases=3 Linecode=3P_OH_AL_ACSR_336kcmil_Merlin_12_47_0_3_3_3_3

New Line.l(r:p1udt19537-p1udt25288) Units=km Length=0.059248100000000005 bus1=p1udt19537-p1udt25288xx.1.2.3 bus2=p1udt19537-p1udt25288x.1.2.3 switch=n enabled=y phases=3 Linecode=3P_UG_AL_4/0_25_12_47_0_3_3_3_3

New Line.l(r:p1udt25288-p1udt9251) Units=km Length=0.0197559 bus1=p1udt25288-p1udt9251xx.1.2.3 bus2=p1udt25288-p1udt9251x.1.2.3 switch=n enabled=y phases=3 Linecode=3P_UG_AL_4/0_25_12_47_0_3_3_3_3

New Line.l(r:p1udt12764-p1udt9251) Units=km Length=0.16308800000000004 bus1=p1udt12764.1.2.3 bus2=p1udt9251.1.2.3 switch=n enabled=y phases=3 Linecode=3P_OH_AL_ACSR_4/0_Penguin_12_47_0_3_3_3_3

New Line.l(r:p1udt12764-p1udt22445) Units=km Length=0.08318080000000001 bus1=p1udt22445.1.2.3 bus2=p1udt12764.1.2.3 switch=n enabled=y phases=3 Linecode=3P_OH_AL_ACSR_4/0_Penguin_12_47_0_3_3_3_3

New Line.l(r:p1udt18388-p1udt7685) Units=km Length=0.295907 bus1=p1udt18388.1.2.3 bus2=p1udt7685.1.2.3 switch=n enabled=y phases=3 Linecode=3P_OH_AL_ACSR_4/0_Penguin_12_47_0_3_3_3_3

New Line.l(r:p1udt18388-p1udt24078) Units=km Length=0.581606 bus1=p1udt24078.1.2.3 bus2=p1udt18388.1.2.3 switch=n enabled=y phases=3 Linecode=3P_OH_AL_ACSR_4/0_Penguin_12_47_0_3_3_3_3

New Line.l(r:p1udt17414-p1udt24078) Units=km Length=0.164112 bus1=p1udt17414.1.2.3 bus2=p1udt24078.1.2.3 switch=n enabled=y phases=3 Linecode=3P_OH_AL_ACSR_4/0_Penguin_12_47_0_3_3_3_3

New Line.l(r:p1udt17414-p1udt21083) Units=km Length=0.05417860000000001 bus1=p1udt21083.1.2.3 bus2=p1udt17414.1.2.3 switch=n enabled=y phases=3 Linecode=3P_OH_AL_ACSR_4/0_Penguin_12_47_0_3_3_3_3

New Line.l(r:p1udt18790-p1udt23040) Units=km Length=0.278219 bus1=p1udt18790-p1udt23040x.1.2.3 bus2=p1udt18790-p1udt23040xx.1.2.3 switch=n enabled=y phases=3 Linecode=3P_UG_AL_4/0_25_12_47_0_3_3_3_3

New Line.l(r:p1udt18790-p1udt21393) Units=km Length=0.0775731 bus1=p1udt18790-p1udt21393xx.1.2.3 bus2=p1udt18790-p1udt21393x.1.2.3 switch=n enabled=y phases=3 Linecode=3P_UG_AL_4/0_25_12_47_0_3_3_3_3

New Line.l(r:p1udt21393-p1udt6382) Units=km Length=0.0387842 bus1=p1udt21393-p1udt6382xx.1.2.3 bus2=p1udt21393-p1udt6382x.1.2.3 switch=n enabled=y phases=3 Linecode=3P_UG_AL_4/0_25_12_47_0_3_3_3_3

New Line.l(r:p1udt6382-p1udt7268) Units=km Length=0.0650406 bus1=p1udt6382-p1udt7268xx.1.2.3 bus2=p1udt6382-p1udt7268x.1.2.3 switch=n enabled=y phases=3 Linecode=3P_UG_AL_4/0_25_12_47_0_3_3_3_3

New Line.l(r:p1udt22189-p1udt7268) Units=km Length=0.113379 bus1=p1udt22189.1.2.3 bus2=p1udt7268.1.2.3 switch=n enabled=y phases=3 Linecode=3P_OH_AL_ACSR_4/0_Penguin_12_47_0_3_3_3_3

New Line.l(r:p1udt22189-p1udt6381) Units=km Length=0.0508968 bus1=p1udt6381.1.2.3 bus2=p1udt22189.1.2.3 switch=n enabled=y phases=3 Linecode=3P_OH_AL_ACSR_4/0_Penguin_12_47_0_3_3_3_3

New Line.l(r:p1udt24797-p1udt6381) Units=km Length=0.246875 bus1=p1udt24797.1.2.3 bus2=p1udt6381.1.2.3 switch=n enabled=y phases=3 Linecode=3P_OH_AL_ACSR_4/0_Penguin_12_47_0_3_3_3_3

New Line.l(r:p1udt18204-p1udt24797) Units=km Length=0.14934300000000003 bus1=p1udt18204.1.2.3 bus2=p1udt24797.1.2.3 switch=n enabled=y phases=3 Linecode=3P_OH_AL_ACSR_4/0_Penguin_12_47_0_3_3_3_3

New Line.l(r:p1udt18204-p1udt22444) Units=km Length=0.105913 bus1=p1udt22444.1.2.3 bus2=p1udt18204.1.2.3 switch=n enabled=y phases=3 Linecode=3P_OH_AL_ACSR_4/0_Penguin_12_47_0_3_3_3_3

New Line.l(r:p1udt21083-p1udt22444) Units=km Length=0.106635 bus1=p1udt21083.1.2.3 bus2=p1udt22444.1.2.3 switch=n enabled=y phases=3 Linecode=3P_OH_AL_ACSR_4/0_Penguin_12_47_0_3_3_3_3

New Line.l(r:p1udt21083-p1udt22445) Units=km Length=0.313985 bus1=p1udt22445.1.2.3 bus2=p1udt21083.1.2.3 switch=n enabled=y phases=3 Linecode=3P_OH_AL_ACSR_4/0_Penguin_12_47_0_3_3_3_3

New Line.l(r:p1udt19357-p1udt21394) Units=km Length=0.161507 bus1=p1udt19357-p1udt21394x.1.2.3 bus2=p1udt19357-p1udt21394xx.1.2.3 switch=n enabled=y phases=3 Linecode=3P_UG_AL_4/0_25_12_47_0_3_3_3_3

New Line.l(r:p1udt18605-p1udt19357) Units=km Length=0.0696102 bus1=p1udt18605-p1udt19357x.1.2.3 bus2=p1udt18605-p1udt19357xx.1.2.3 switch=n enabled=y phases=3 Linecode=3P_UG_AL_4/0_25_12_47_0_3_3_3_3

New Line.l(r:p1udt12433-p1udt18605) Units=km Length=0.0497178 bus1=p1udt12433-p1udt18605x.1.2.3 bus2=p1udt12433-p1udt18605xx.1.2.3 switch=n enabled=y phases=3 Linecode=3P_UG_AL_4/0_25_12_47_0_3_3_3_3

New Line.l(r:p1udt18004-p1udt8497) Units=km Length=0.0197225 bus1=p1udt18004-p1udt8497xx.1.2.3 bus2=p1udt18004-p1udt8497x.1.2.3 switch=n enabled=y phases=3 Linecode=3P_UG_AL_4/0_25_12_47_0_3_3_3_3

New Line.l(r:p1udt18984-p1udt8497) Units=km Length=0.09865780000000002 bus1=p1udt18984-p1udt8497x.1.2.3 bus2=p1udt18984-p1udt8497xx.1.2.3 switch=n enabled=y phases=3 Linecode=3P_UG_AL_4/0_25_12_47_0_3_3_3_3

New Line.l(r:p1udt12433-p1udt18984) Units=km Length=0.039624000000000006 bus1=p1udt12433-p1udt18984x.1.2.3 bus2=p1udt12433-p1udt18984xx.1.2.3 switch=n enabled=y phases=3 Linecode=3P_UG_AL_4/0_25_12_47_0_3_3_3_3

New Line.l(r:p1udt11098-p1udt12433) Units=km Length=0.102255 bus1=p1udt11098.1.2.3 bus2=p1udt12433.1.2.3 switch=n enabled=y phases=3 Linecode=3P_OH_AL_ACSR_4/0_Penguin_12_47_0_3_3_3_3

New Line.l(r:p1udt11098-p1udt21516) Units=km Length=0.151191 bus1=p1udt21516.1.2.3 bus2=p1udt11098.1.2.3 switch=n enabled=y phases=3 Linecode=3P_OH_AL_ACSR_4/0_Penguin_12_47_0_3_3_3_3

New Line.l(r:p1udt10004-p1udt21516) Units=km Length=0.14831 bus1=p1udt10004.1.2.3 bus2=p1udt21516.1.2.3 switch=n enabled=y phases=3 Linecode=3P_OH_AL_ACSR_4/0_Penguin_12_47_0_3_3_3_3

New Line.l(r:p1udt10004-p1udt24187) Units=km Length=0.0953918 bus1=p1udt10004-p1udt24187xx.1.2.3 bus2=p1udt10004-p1udt24187x.1.2.3 switch=n enabled=y phases=3 Linecode=3P_UG_AL_4/0_25_12_47_0_3_3_3_3

New Line.l(r:p1udt20526-p1udt23041) Units=km Length=0.182718 bus1=p1udt23041.1.2.3 bus2=p1udt20526.1.2.3 switch=n enabled=y phases=3 Linecode=3P_OH_AL_ACSR_4/0_Penguin_12_47_0_3_3_3_3

New Line.l(r:p1udt23041-p1udt24591) Units=km Length=0.0561939 bus1=p1udt24591.1.2.3 bus2=p1udt23041.1.2.3 switch=n enabled=y phases=3 Linecode=3P_OH_AL_ACSR_4/0_Penguin_12_47_0_3_3_3_3

New Line.l(r:p1udt24187-p1udt24591) Units=km Length=0.225825 bus1=p1udt24187.1.2.3 bus2=p1udt24591.1.2.3 switch=n enabled=y phases=3 Linecode=3P_OH_AL_ACSR_4/0_Penguin_12_47_0_3_3_3_3

New Line.l(r:p1udt22445-p1udt24187) Units=km Length=0.24094800000000002 bus1=p1udt22445.1.2.3 bus2=p1udt24187.1.2.3 switch=n enabled=y phases=3 Linecode=3P_OH_AL_ACSR_4/0_Penguin_12_47_0_3_3_3_3

New Line.l(r:p1udt22445lv-p1ulv49104) Units=km Length=0.0103079 bus1=p1udt22445lv.1.2.3 bus2=p1ulv49104.1.2.3 switch=n enabled=y phases=3 Linecode=3P_UG_AL_350kcmil_15_0_416_0_3_3_3_3

New Line.l(r:p1udt2221lv-p1ulv2346) Units=km Length=0.0125532 bus1=p1udt2221lv.1.2.3 bus2=p1ulv2346.1.2.3 switch=n enabled=y phases=3 Linecode=3P_UG_AL_350kcmil_15_0_416_0_3_3_3_3

New Line.l(r:p1udt2221lv-p1ulv6130) Units=km Length=0.0129377 bus1=p1udt2221lv.1.2.3 bus2=p1ulv6130.1.2.3 switch=n enabled=y phases=3 Linecode=3P_UG_AL_350kcmil_15_0_416_0_3_3_3_3

New Line.l(r:p1udt12764-p1udt2221) Units=km Length=0.0391478 bus1=p1udt12764.1.2.3 bus2=p1udt2221.1.2.3 switch=n enabled=y phases=3 Linecode=3P_OH_AL_ACSR_4/0_Penguin_12_47_0_3_3_3_3

New Line.l(r:p1udt19537lv-p1ulv36539) Units=km Length=0.019132900000000005 bus1=p1udt19537lv.1.2.3 bus2=p1ulv36539.1.2.3 switch=n enabled=y phases=3 Linecode=3P_UG_AL_350kcmil_15_0_416_0_3_3_3_3

New Line.l(r:p1udt11413lv-p1ulv15463) Units=km Length=0.0231466 bus1=p1udt11413lv.1.2.3 bus2=p1ulv15463.1.2.3 switch=n enabled=y phases=3 Linecode=3P_UG_AL_350kcmil_15_0_416_0_3_3_3_3

New Line.l(r:p1udt10380-p1udt11413) Units=km Length=0.05447810000000001 bus1=p1udt10380.1.2.3 bus2=p1udt11413.1.2.3 switch=n enabled=y phases=3 Linecode=3P_OH_AL_ACSR_4/0_Penguin_12_47_0_3_3_3_3

New Line.l(r:p1udt10380-p1udt21800) Units=km Length=0.39623900000000006 bus1=p1udt21800.1.2.3 bus2=p1udt10380.1.2.3 switch=n enabled=y phases=3 Linecode=3P_OH_AL_ACSR_4/0_Penguin_12_47_0_3_3_3_3

New Line.l(r:p1udt3381lv-p1ulv3633) Units=km Length=0.036778 bus1=p1udt3381lv.1.2.3 bus2=p1ulv3633.1.2.3 switch=n enabled=y phases=3 Linecode=3P_UG_AL_750kcmil_25_0_416_0_3_3_3_3

New Line.l(r:p1udt24703lv-p1ulv61433) Units=km Length=0.00541777 bus1=p1udt24703lv.1.2.3 bus2=p1ulv61433.1.2.3 switch=n enabled=y phases=3 Linecode=3P_UG_AL_350kcmil_15_0_416_0_3_3_3_3

New Line.l(r:p1udt24383-p1udt24703) Units=km Length=0.204461 bus1=p1udt24383.1.2.3 bus2=p1udt24703.1.2.3 switch=n enabled=y phases=3 Linecode=3P_OH_AL_ACSR_4/0_Penguin_12_47_0_3_3_3_3

New Line.l(r:p1udt24383-p1udt3381) Units=km Length=0.0568845 bus1=p1udt3381.1.2.3 bus2=p1udt24383.1.2.3 switch=n enabled=y phases=3 Linecode=3P_OH_AL_ACSR_4/0_Penguin_12_47_0_3_3_3_3

New Line.l(r:p1udt3381-p1udt8092) Units=km Length=0.0562098 bus1=p1udt8092.1.2.3 bus2=p1udt3381.1.2.3 switch=n enabled=y phases=3 Linecode=3P_OH_AL_ACSR_4/0_Penguin_12_47_0_3_3_3_3

New Line.l(r:p1udt11100-p1udt8092) Units=km Length=0.10310600000000002 bus1=p1udt11100.1.2.3 bus2=p1udt8092.1.2.3 switch=n enabled=y phases=3 Linecode=3P_OH_AL_ACSR_4/0_Penguin_12_47_0_3_3_3_3

New Line.l(r:p1udt11100-p1udt21800) Units=km Length=0.0925754 bus1=p1udt21800.1.2.3 bus2=p1udt11100.1.2.3 switch=n enabled=y phases=3 Linecode=3P_OH_AL_ACSR_4/0_Penguin_12_47_0_3_3_3_3

New Line.l(r:p1udt19537-p1udt21800) Units=km Length=0.1403 bus1=p1udt19537-p1udt21800x.1.2.3 bus2=p1udt19537-p1udt21800xx.1.2.3 switch=n enabled=y phases=3 Linecode=3P_UG_AL_4/0_25_12_47_0_3_3_3_3

New Line.l(r:p1udt21083lv-p1ulv42755) Units=km Length=0.0133085 bus1=p1udt21083lv.1.2.3 bus2=p1ulv42755.1.2.3 switch=n enabled=y phases=3 Linecode=3P_UG_AL_350kcmil_15_0_416_0_3_3_3_3

New Line.l(r:p1udt24078lv-p1ulv57764) Units=km Length=0.0318555 bus1=p1udt24078lv.1.2.3 bus2=p1ulv57764.1.2.3 switch=n enabled=y phases=3 Linecode=3P_UG_AL_750kcmil_25_0_416_0_3_3_3_3

New Line.l(r:p1udt18388lv-p1ulv32690) Units=km Length=0.0178815 bus1=p1udt18388lv.1.2.3 bus2=p1ulv32690.1.2.3 switch=n enabled=y phases=3 Linecode=3P_UG_AL_750kcmil_25_0_416_0_3_3_3_3

New Line.l(r:p1udt18388lv-p1ulv62703) Units=km Length=0.0321775 bus1=p1udt18388lv.1.2.3 bus2=p1ulv62703.1.2.3 switch=n enabled=y phases=3 Linecode=3P_UG_AL_350kcmil_15_0_416_0_3_3_3_3

New Line.l(r:p1udt7685lv-p1ulv9266) Units=km Length=0.04058260000000001 bus1=p1udt7685lv.1.2.3 bus2=p1ulv9266.1.2.3 switch=n enabled=y phases=3 Linecode=3P_UG_AL_350kcmil_15_0_416_0_3_3_3_3

New Line.l(r:p1udt7685-p1umv56) Units=km Length=0.0303577 bus1=p1udt7685.1.2.3 bus2=p1umv56.1.2.3 switch=n enabled=y phases=3 Linecode=3P_OH_AL_ACSR_4/0_Penguin_12_47_0_3_3_3_3

New Line.l(r:p1udt3883lv-p1ulv4237) Units=km Length=0.0393421 bus1=p1udt3883lv.1.2.3 bus2=p1ulv4237.1.2.3 switch=n enabled=y phases=3 Linecode=3P_UG_AL_750kcmil_25_0_416_0_3_3_3_3

New Line.l(r:p1udt15057-p1udt3883) Units=km Length=0.0190349 bus1=p1udt15057.1.2.3 bus2=p1udt3883.1.2.3 switch=n enabled=y phases=3 Linecode=3P_OH_AL_ACSR_4/0_Penguin_12_47_0_3_3_3_3

New Line.l(r:p1udt15057-p1udt7685) Units=km Length=0.0761202 bus1=p1udt7685.1.2.3 bus2=p1udt15057.1.2.3 switch=n enabled=y phases=3 Linecode=3P_OH_AL_ACSR_4/0_Penguin_12_47_0_3_3_3_3

New Line.l(r:p1udt21644lv-p1ulv45355) Units=km Length=0.045397 bus1=p1udt21644lv.1.2.3 bus2=p1ulv45355.1.2.3 switch=n enabled=y phases=3 Linecode=3P_UG_AL_350kcmil_15_0_416_0_3_3_3_3

New Line.l(r:p1udt21644lv-p1ulv55342) Units=km Length=0.0193963 bus1=p1udt21644lv.1.2.3 bus2=p1ulv55342.1.2.3 switch=n enabled=y phases=3 Linecode=3P_UG_AL_350kcmil_15_0_416_0_3_3_3_3

New Line.l(r:p1udt19355-p1udt21644) Units=km Length=0.001 bus1=p1udt19355-p1udt21644x.1.2.3 bus2=p1udt19355-p1udt21644xx.1.2.3 switch=n enabled=y phases=3 Linecode=3P_UG_AL_4/0_25_12_47_0_3_3_3_3

New Line.l(r:p1udt19355-p1udt24078) Units=km Length=0.44820600000000005 bus1=p1udt24078.1.2.3 bus2=p1udt19355.1.2.3 switch=n enabled=y phases=3 Linecode=3P_OH_AL_ACSR_4/0_Penguin_12_47_0_3_3_3_3

New Line.l(r:p1udt18204lv-p1ulv32045) Units=km Length=0.0150235 bus1=p1udt18204lv.1.2.3 bus2=p1ulv32045.1.2.3 switch=n enabled=y phases=3 Linecode=3P_UG_AL_750kcmil_25_0_416_0_3_3_3_3

New Line.l(r:p1udt22191lv-p1ulv47865) Units=km Length=0.010868400000000002 bus1=p1udt22191lv.1.2.3 bus2=p1ulv47865.1.2.3 switch=n enabled=y phases=3 Linecode=3P_UG_AL_750kcmil_25_0_416_0_3_3_3_3

New Line.l(r:p1udt18204-p1udt22191) Units=km Length=0.115623 bus1=p1udt18204.1.2.3 bus2=p1udt22191.1.2.3 switch=n enabled=y phases=3 Linecode=3P_OH_AL_ACSR_4/0_Penguin_12_47_0_3_3_3_3

New Line.l(r:p1udt24797lv-p1ulv62055) Units=km Length=0.0174169 bus1=p1udt24797lv.1.2.3 bus2=p1ulv62055.1.2.3 switch=n enabled=y phases=3 Linecode=3P_UG_AL_350kcmil_15_0_416_0_3_3_3_3

New Line.l(r:p1udt19356lv-p1ulv35924) Units=km Length=0.0152188 bus1=p1udt19356lv.1.2.3 bus2=p1ulv35924.1.2.3 switch=n enabled=y phases=3 Linecode=3P_UG_AL_750kcmil_25_0_416_0_3_3_3_3

New Line.l(r:p1udt19356-p1udt4389) Units=km Length=0.001 bus1=p1udt4389.1.2.3 bus2=p1udt19356.1.2.3 switch=n enabled=y phases=3 Linecode=3P_OH_AL_ACSR_4/0_Penguin_12_47_0_3_3_3_3

New Line.l(r:p1udt4389-p1udt6381) Units=km Length=0.0581709 bus1=p1udt6381.1.2.3 bus2=p1udt4389.1.2.3 switch=n enabled=y phases=3 Linecode=3P_OH_AL_ACSR_4/0_Penguin_12_47_0_3_3_3_3

New Line.l(r:p1udt21393lv-p1ulv44091) Units=km Length=0.0139994 bus1=p1udt21393lv.1.2.3 bus2=p1ulv44091.1.2.3 switch=n enabled=y phases=3 Linecode=3P_UG_AL_350kcmil_15_0_416_0_3_3_3_3

New Line.l(r:p1udm61573-p1ulv52207) Units=km Length=0.030556000000000003 bus1=p1udm61573.1.2.3 bus2=p1ulv52207.1.2.3 switch=n enabled=y phases=3 Linecode=3P_UG_AL_350kcmil_15_0_416_0_3_3_3_3

New Line.l(r:p1udm61573-p1udt23040lv) Units=km Length=0.0196579 bus1=p1udt23040lv.1.2.3 bus2=p1udm61573.1.2.3 switch=n enabled=y phases=3 Linecode=3P_UG_AL_350kcmil_15_0_416_0_3_3_3_3

New Line.l(r:p1udm61574-p1ulv59572) Units=km Length=0.0245445 bus1=p1udm61574.1.2.3 bus2=p1ulv59572.1.2.3 switch=n enabled=y phases=3 Linecode=3P_UG_AL_350kcmil_15_0_416_0_3_3_3_3

New Line.l(r:p1udm61574-p1udt23040lv) Units=km Length=0.0196579 bus1=p1udt23040lv.1.2.3 bus2=p1udm61574.1.2.3 switch=n enabled=y phases=3 Linecode=3P_UG_AL_350kcmil_15_0_416_0_3_3_3_3

New Line.l(r:p1udt13097lv-p1ulv18711) Units=km Length=0.0352161 bus1=p1udt13097lv.1.2.3 bus2=p1ulv18711.1.2.3 switch=n enabled=y phases=3 Linecode=3P_UG_AL_350kcmil_15_0_416_0_3_3_3_3

New Line.l(r:p1udt25004lv-p1ulv63336) Units=km Length=0.030706 bus1=p1udt25004lv.1.2.3 bus2=p1ulv63336.1.2.3 switch=n enabled=y phases=3 Linecode=3P_UG_AL_350kcmil_15_0_416_0_3_3_3_3

New Line.l(r:p1udt7269lv-p1ulv8657) Units=km Length=0.0109903 bus1=p1udt7269lv.1.2.3 bus2=p1ulv8657.1.2.3 switch=n enabled=y phases=3 Linecode=3P_UG_AL_350kcmil_15_0_416_0_3_3_3_3

New Line.l(r:p1udt25004-p1udt7269) Units=km Length=0.0735299 bus1=p1udt25004.1.2.3 bus2=p1udt7269.1.2.3 switch=n enabled=y phases=3 Linecode=3P_OH_AL_ACSR_4/0_Penguin_12_47_0_3_3_3_3

New Line.l(r:p1udt13097-p1udt25004) Units=km Length=0.266488 bus1=p1udt13097.1.2.3 bus2=p1udt25004.1.2.3 switch=n enabled=y phases=3 Linecode=3P_OH_AL_ACSR_4/0_Penguin_12_47_0_3_3_3_3

New Line.l(r:p1udt13097-p1udt19715) Units=km Length=0.128127 bus1=p1udt13097-p1udt19715xx.1.2.3 bus2=p1udt13097-p1udt19715x.1.2.3 switch=n enabled=y phases=3 Linecode=3P_UG_AL_4/0_25_12_47_0_3_3_3_3

New Line.l(r:p1udt19715-p1udt23040) Units=km Length=0.250607 bus1=p1udt19715-p1udt23040xx.1.2.3 bus2=p1udt19715-p1udt23040x.1.2.3 switch=n enabled=y phases=3 Linecode=3P_UG_AL_4/0_25_12_47_0_3_3_3_3

New Line.l(r:p1udt21247lv-p1ulv43449) Units=km Length=0.0325131 bus1=p1udt21247lv.1.2.3 bus2=p1ulv43449.1.2.3 switch=n enabled=y phases=3 Linecode=3P_UG_AL_350kcmil_15_0_416_0_3_3_3_3

New Line.l(r:p1udt18791lv-p1ulv34004) Units=km Length=0.0306585 bus1=p1udt18791lv.1.2.3 bus2=p1ulv34004.1.2.3 switch=n enabled=y phases=3 Linecode=3P_UG_AL_350kcmil_15_0_416_0_3_3_3_3

New Line.l(r:p1udt15324-p1udt18791) Units=km Length=0.0393246 bus1=p1udt15324-p1udt18791x.1.2.3 bus2=p1udt15324-p1udt18791xx.1.2.3 switch=n enabled=y phases=3 Linecode=3P_UG_AL_4/0_25_12_47_0_3_3_3_3

New Line.l(r:p1udt14543-p1udt15324) Units=km Length=0.0589825 bus1=p1udt14543-p1udt15324x.1.2.3 bus2=p1udt14543-p1udt15324xx.1.2.3 switch=n enabled=y phases=3 Linecode=3P_UG_AL_4/0_25_12_47_0_3_3_3_3

New Line.l(r:p1udt14543-p1udt21247) Units=km Length=0.0393207 bus1=p1udt14543-p1udt21247xx.1.2.3 bus2=p1udt14543-p1udt21247x.1.2.3 switch=n enabled=y phases=3 Linecode=3P_UG_AL_4/0_25_12_47_0_3_3_3_3

New Line.l(r:p1udt21247-p1udt23040) Units=km Length=0.0294932 bus1=p1udt21247-p1udt23040xx.1.2.3 bus2=p1udt21247-p1udt23040x.1.2.3 switch=n enabled=y phases=3 Linecode=3P_UG_AL_4/0_25_12_47_0_3_3_3_3
