New Line.l(r:p1rdt9lv-p1rlv10) Units=km Length=0.0280236 bus1=p1rdt9lv.1.2 bus2=p1rlv10.1.2 switch=n enabled=y phases=2 Linecode=1P_OH_AL_4/0_Zuzara_0_416_0_2_2_2_2_2_2_2_2_2_2_2_2_2_2_2_2_2_2_2_2_2_2_2_2_2_2_2_2_2

New Line.l(r:p1rdt13lv-p1rlv14) Units=km Length=0.022611900000000004 bus1=p1rdt13lv.1.2 bus2=p1rlv14.1.2 switch=n enabled=y phases=2 Linecode=1P_OH_AL_2/0_Rucina_0_416_0_2_2_2_2_2_2_2_2_2_2_2_2_2_2_2_2_2_2_2_2_2_2_2_2_2_2_2_2_2

New Line.l(r:p1rdm309-p1rlv131) Units=km Length=0.0268339 bus1=p1rdm309.1.2 bus2=p1rlv131.1.2 switch=n enabled=y phases=2 Linecode=1P_OH_AL_2/0_Rucina_0_416_0_2_2_2_2_2_2_2_2_2_2_2_2_2_2_2_2_2_2_2_2_2_2_2_2_2_2_2_2_2

New Line.l(r:p1rdm309-p1rdt127lv) Units=km Length=0.0158156 bus1=p1rdt127lv.1.2 bus2=p1rdm309.1.2 switch=n enabled=y phases=2 Linecode=1P_OH_AL_2/0_Rucina_0_416_0_2_2_2_2_2_2_2_2_2_2_2_2_2_2_2_2_2_2_2_2_2_2_2_2_2_2_2_2_2

New Line.l(r:p1rdm310-p1rlv2439) Units=km Length=0.0160814 bus1=p1rdm310.1.2 bus2=p1rlv2439.1.2 switch=n enabled=y phases=2 Linecode=1P_OH_AL_2/0_Rucina_0_416_0_2_2_2_2_2_2_2_2_2_2_2_2_2_2_2_2_2_2_2_2_2_2_2_2_2_2_2_2_2

New Line.l(r:p1rdm310-p1rdt127lv) Units=km Length=0.0182538 bus1=p1rdt127lv.1.2 bus2=p1rdm310.1.2 switch=n enabled=y phases=2 Linecode=1P_OH_AL_2/0_Rucina_0_416_0_2_2_2_2_2_2_2_2_2_2_2_2_2_2_2_2_2_2_2_2_2_2_2_2_2_2_2_2_2

New Line.l(r:p1rdt265lv-p1rlv272) Units=km Length=0.0733858 bus1=p1rdt265lv.1.2 bus2=p1rlv272.1.2 switch=n enabled=y phases=2 Linecode=1P_OH_AL_4/0_Zuzara_0_416_0_2_2_2_2_2_2_2_2_2_2_2_2_2_2_2_2_2_2_2_2_2_2_2_2_2_2_2_2_2

New Line.l(r:p1rdt266lv-p1rlv273) Units=km Length=0.0493489 bus1=p1rdt266lv.1.2 bus2=p1rlv273.1.2 switch=n enabled=y phases=2 Linecode=1P_OH_AL_4/0_Zuzara_0_416_0_2_2_2_2_2_2_2_2_2_2_2_2_2_2_2_2_2_2_2_2_2_2_2_2_2_2_2_2_2

New Line.l(r:p1rdt267lv-p1rlv274) Units=km Length=0.0173684 bus1=p1rdt267lv.1.2 bus2=p1rlv274.1.2 switch=n enabled=y phases=2 Linecode=1P_OH_AL_2/0_Rucina_0_416_0_2_2_2_2_2_2_2_2_2_2_2_2_2_2_2_2_2_2_2_2_2_2_2_2_2_2_2_2_2

New Line.l(r:p1rdt267lv-p1rlv11390) Units=km Length=0.0173684 bus1=p1rdt267lv.1.2 bus2=p1rlv11390.1.2 switch=n enabled=y phases=2 Linecode=1P_OH_AL_2/0_Rucina_0_416_0_2_2_2_2_2_2_2_2_2_2_2_2_2_2_2_2_2_2_2_2_2_2_2_2_2_2_2_2_2

New Line.l(r:p1rdt268lv-p1rlv275) Units=km Length=0.0037701100000000006 bus1=p1rdt268lv.1.2 bus2=p1rlv275.1.2 switch=n enabled=y phases=2 Linecode=1P_OH_AL_4_Periwinkle_0_416_0_2_2_2_2_2_2_2_2_2_2_2_2_2_2_2_2_2_2_2_2_2_2_2_2_2_2_2_2_2

New Line.l(r:p1rdm635-p1rlv7072) Units=km Length=0.0174129 bus1=p1rdm635.1.2 bus2=p1rlv7072.1.2 switch=n enabled=y phases=2 Linecode=1P_OH_AL_2/0_Rucina_0_416_0_2_2_2_2_2_2_2_2_2_2_2_2_2_2_2_2_2_2_2_2_2_2_2_2_2_2_2_2_2

New Line.l(r:p1rdm635-p1rdt268lv) Units=km Length=0.025946 bus1=p1rdt268lv.1.2 bus2=p1rdm635.1.2 switch=n enabled=y phases=2 Linecode=1P_OH_AL_2/0_Rucina_0_416_0_2_2_2_2_2_2_2_2_2_2_2_2_2_2_2_2_2_2_2_2_2_2_2_2_2_2_2_2_2

New Line.l(r:p1rdt269lv-p1rlv276) Units=km Length=0.0304616 bus1=p1rdt269lv.1.2 bus2=p1rlv276.1.2 switch=n enabled=y phases=2 Linecode=1P_OH_AL_4/0_Zuzara_0_416_0_2_2_2_2_2_2_2_2_2_2_2_2_2_2_2_2_2_2_2_2_2_2_2_2_2_2_2_2_2

New Line.l(r:p1rdt272lv-p1rlv280) Units=km Length=0.021210100000000003 bus1=p1rdt272lv.1.2 bus2=p1rlv280.1.2 switch=n enabled=y phases=2 Linecode=1P_OH_AL_2/0_Rucina_0_416_0_2_2_2_2_2_2_2_2_2_2_2_2_2_2_2_2_2_2_2_2_2_2_2_2_2_2_2_2_2

New Line.l(r:p1rdt272lv-p1rlv4454) Units=km Length=0.025183 bus1=p1rdt272lv.1.2 bus2=p1rlv4454.1.2 switch=n enabled=y phases=2 Linecode=1P_OH_AL_2/0_Rucina_0_416_0_2_2_2_2_2_2_2_2_2_2_2_2_2_2_2_2_2_2_2_2_2_2_2_2_2_2_2_2_2

New Line.l(r:p1rdt272lv-p1rlv7219) Units=km Length=0.00526833 bus1=p1rdt272lv.1.2 bus2=p1rlv7219.1.2 switch=n enabled=y phases=2 Linecode=1P_OH_AL_2/0_Rucina_0_416_0_2_2_2_2_2_2_2_2_2_2_2_2_2_2_2_2_2_2_2_2_2_2_2_2_2_2_2_2_2

New Line.l(r:p1rdt273lv-p1rlv6311) Units=km Length=0.0244037 bus1=p1rdt273lv.1.2 bus2=p1rlv6311.1.2 switch=n enabled=y phases=2 Linecode=1P_OH_AL_2/0_Rucina_0_416_0_2_2_2_2_2_2_2_2_2_2_2_2_2_2_2_2_2_2_2_2_2_2_2_2_2_2_2_2_2

New Line.l(r:p1rdt273lv-p1rlv8956) Units=km Length=0.0454704 bus1=p1rdt273lv.1.2 bus2=p1rlv8956.1.2 switch=n enabled=y phases=2 Linecode=1P_OH_AL_4/0_Zuzara_0_416_0_2_2_2_2_2_2_2_2_2_2_2_2_2_2_2_2_2_2_2_2_2_2_2_2_2_2_2_2_2

New Line.l(r:p1rdm643-p1rlv281) Units=km Length=0.0046619 bus1=p1rdm643.1.2 bus2=p1rlv281.1.2 switch=n enabled=y phases=2 Linecode=1P_OH_AL_2/0_Rucina_0_416_0_2_2_2_2_2_2_2_2_2_2_2_2_2_2_2_2_2_2_2_2_2_2_2_2_2_2_2_2_2

New Line.l(r:p1rdm643-p1rdt273lv) Units=km Length=0.0831595 bus1=p1rdt273lv.1.2 bus2=p1rdm643.1.2 switch=n enabled=y phases=2 Linecode=1P_OH_AL_4/0_Zuzara_0_416_0_2_2_2_2_2_2_2_2_2_2_2_2_2_2_2_2_2_2_2_2_2_2_2_2_2_2_2_2_2

New Line.l(r:p1rdt274lv-p1rlv282) Units=km Length=0.001 bus1=p1rdt274lv.1.2 bus2=p1rlv282.1.2 switch=n enabled=y phases=2 Linecode=1P_OH_AL_4_Periwinkle_0_416_0_2_2_2_2_2_2_2_2_2_2_2_2_2_2_2_2_2_2_2_2_2_2_2_2_2_2_2_2_2

New Line.l(r:p1rdt392lv-p1rlv401) Units=km Length=0.0566212 bus1=p1rdt392lv.1.2 bus2=p1rlv401.1.2 switch=n enabled=y phases=2 Linecode=1P_OH_AL_4/0_Zuzara_0_416_0_2_2_2_2_2_2_2_2_2_2_2_2_2_2_2_2_2_2_2_2_2_2_2_2_2_2_2_2_2

New Line.l(r:p1rdt519lv-p1rlv532) Units=km Length=0.001 bus1=p1rdt519lv.1.2 bus2=p1rlv532.1.2 switch=n enabled=y phases=2 Linecode=1P_OH_AL_4_Periwinkle_0_416_0_2_2_2_2_2_2_2_2_2_2_2_2_2_2_2_2_2_2_2_2_2_2_2_2_2_2_2_2_2

New Line.l(r:p1rdt520lv-p1rlv533) Units=km Length=0.001 bus1=p1rdt520lv.1.2 bus2=p1rlv533.1.2 switch=n enabled=y phases=2 Linecode=1P_OH_AL_4_Periwinkle_0_416_0_2_2_2_2_2_2_2_2_2_2_2_2_2_2_2_2_2_2_2_2_2_2_2_2_2_2_2_2_2

New Line.l(r:p1rdm1497-p1rlv669) Units=km Length=0.0361058 bus1=p1rdm1497.1.2 bus2=p1rlv669.1.2 switch=n enabled=y phases=2 Linecode=1P_OH_AL_4/0_Zuzara_0_416_0_2_2_2_2_2_2_2_2_2_2_2_2_2_2_2_2_2_2_2_2_2_2_2_2_2_2_2_2_2

New Line.l(r:p1rdm1497-p1rdt647lv) Units=km Length=0.0275698 bus1=p1rdt647lv.1.2 bus2=p1rdm1497.1.2 switch=n enabled=y phases=2 Linecode=1P_OH_AL_4/0_Zuzara_0_416_0_2_2_2_2_2_2_2_2_2_2_2_2_2_2_2_2_2_2_2_2_2_2_2_2_2_2_2_2_2

New Line.l(r:p1rdm1498-p1rlv13781) Units=km Length=0.0438803 bus1=p1rdm1498.1.2 bus2=p1rlv13781.1.2 switch=n enabled=y phases=2 Linecode=1P_OH_AL_4/0_Zuzara_0_416_0_2_2_2_2_2_2_2_2_2_2_2_2_2_2_2_2_2_2_2_2_2_2_2_2_2_2_2_2_2

New Line.l(r:p1rdm1498-p1rdt647lv) Units=km Length=0.0173296 bus1=p1rdt647lv.1.2 bus2=p1rdm1498.1.2 switch=n enabled=y phases=2 Linecode=1P_OH_AL_2/0_Rucina_0_416_0_2_2_2_2_2_2_2_2_2_2_2_2_2_2_2_2_2_2_2_2_2_2_2_2_2_2_2_2_2

New Line.l(r:p1rdt796lv-p1rlv831) Units=km Length=0.00301902 bus1=p1rdt796lv.1.2 bus2=p1rlv831.1.2 switch=n enabled=y phases=2 Linecode=1P_OH_AL_4_Periwinkle_0_416_0_2_2_2_2_2_2_2_2_2_2_2_2_2_2_2_2_2_2_2_2_2_2_2_2_2_2_2_2_2

New Line.l(r:p1rdm1813-p1rlv2436) Units=km Length=0.0189862 bus1=p1rdm1813.1.2 bus2=p1rlv2436.1.2 switch=n enabled=y phases=2 Linecode=1P_OH_AL_2/0_Rucina_0_416_0_2_2_2_2_2_2_2_2_2_2_2_2_2_2_2_2_2_2_2_2_2_2_2_2_2_2_2_2_2

New Line.l(r:p1rdm1813-p1rdt796lv) Units=km Length=0.0121178 bus1=p1rdt796lv.1.2 bus2=p1rdm1813.1.2 switch=n enabled=y phases=2 Linecode=1P_OH_AL_2/0_Rucina_0_416_0_2_2_2_2_2_2_2_2_2_2_2_2_2_2_2_2_2_2_2_2_2_2_2_2_2_2_2_2_2

New Line.l(r:p1rdt798lv-p1rlv833) Units=km Length=0.011111300000000001 bus1=p1rdt798lv.1.2 bus2=p1rlv833.1.2 switch=n enabled=y phases=2 Linecode=1P_OH_AL_2/0_Rucina_0_416_0_2_2_2_2_2_2_2_2_2_2_2_2_2_2_2_2_2_2_2_2_2_2_2_2_2_2_2_2_2

New Line.l(r:p1rdt800lv-p1rlv835) Units=km Length=0.0989751 bus1=p1rdt800lv.1.2 bus2=p1rlv835.1.2 switch=n enabled=y phases=2 Linecode=1P_OH_AL_4/0_Zuzara_0_416_0_2_2_2_2_2_2_2_2_2_2_2_2_2_2_2_2_2_2_2_2_2_2_2_2_2_2_2_2_2

New Line.l(r:p1rdt914lv-p1rlv960) Units=km Length=0.00955607 bus1=p1rdt914lv.1.2 bus2=p1rlv960.1.2 switch=n enabled=y phases=2 Linecode=1P_OH_AL_2/0_Rucina_0_416_0_2_2_2_2_2_2_2_2_2_2_2_2_2_2_2_2_2_2_2_2_2_2_2_2_2_2_2_2_2

New Line.l(r:p1rdt914lv-p1rlv6818) Units=km Length=0.0555584 bus1=p1rdt914lv.1.2 bus2=p1rlv6818.1.2 switch=n enabled=y phases=2 Linecode=1P_OH_AL_4/0_Zuzara_0_416_0_2_2_2_2_2_2_2_2_2_2_2_2_2_2_2_2_2_2_2_2_2_2_2_2_2_2_2_2_2

New Line.l(r:p1rdt914lv-p1rlv9607) Units=km Length=0.0737915 bus1=p1rdt914lv.1.2 bus2=p1rlv9607.1.2 switch=n enabled=y phases=2 Linecode=1P_OH_AL_4/0_Zuzara_0_416_0_2_2_2_2_2_2_2_2_2_2_2_2_2_2_2_2_2_2_2_2_2_2_2_2_2_2_2_2_2

New Line.l(r:p1rdt916lv-p1rlv962) Units=km Length=0.00746294 bus1=p1rdt916lv.1.2 bus2=p1rlv962.1.2 switch=n enabled=y phases=2 Linecode=1P_OH_AL_2/0_Rucina_0_416_0_2_2_2_2_2_2_2_2_2_2_2_2_2_2_2_2_2_2_2_2_2_2_2_2_2_2_2_2_2

New Line.l(r:p1rdm2081-p1rlv4154) Units=km Length=0.0103372 bus1=p1rdm2081.1.2 bus2=p1rlv4154.1.2 switch=n enabled=y phases=2 Linecode=1P_OH_AL_2/0_Rucina_0_416_0_2_2_2_2_2_2_2_2_2_2_2_2_2_2_2_2_2_2_2_2_2_2_2_2_2_2_2_2_2

New Line.l(r:p1rdm2081-p1rlv13782) Units=km Length=0.00766187 bus1=p1rdm2081.1.2 bus2=p1rlv13782.1.2 switch=n enabled=y phases=2 Linecode=1P_OH_AL_2/0_Rucina_0_416_0_2_2_2_2_2_2_2_2_2_2_2_2_2_2_2_2_2_2_2_2_2_2_2_2_2_2_2_2_2

New Line.l(r:p1rdm2081-p1rdt916lv) Units=km Length=0.0129755 bus1=p1rdt916lv.1.2 bus2=p1rdm2081.1.2 switch=n enabled=y phases=2 Linecode=1P_OH_AL_2/0_Rucina_0_416_0_2_2_2_2_2_2_2_2_2_2_2_2_2_2_2_2_2_2_2_2_2_2_2_2_2_2_2_2_2

New Line.l(r:p1rdm2082-p1rlv10697) Units=km Length=0.00697381 bus1=p1rdm2082.1.2 bus2=p1rlv10697.1.2 switch=n enabled=y phases=2 Linecode=1P_OH_AL_2/0_Rucina_0_416_0_2_2_2_2_2_2_2_2_2_2_2_2_2_2_2_2_2_2_2_2_2_2_2_2_2_2_2_2_2

New Line.l(r:p1rdm2082-p1rdt916lv) Units=km Length=0.0564491 bus1=p1rdt916lv.1.2 bus2=p1rdm2082.1.2 switch=n enabled=y phases=2 Linecode=1P_OH_AL_4/0_Zuzara_0_416_0_2_2_2_2_2_2_2_2_2_2_2_2_2_2_2_2_2_2_2_2_2_2_2_2_2_2_2_2_2

New Line.l(r:p1rdt920lv-p1rlv966) Units=km Length=0.0583546 bus1=p1rdt920lv.1.2 bus2=p1rlv966.1.2 switch=n enabled=y phases=2 Linecode=1P_OH_AL_4/0_Zuzara_0_416_0_2_2_2_2_2_2_2_2_2_2_2_2_2_2_2_2_2_2_2_2_2_2_2_2_2_2_2_2_2

New Line.l(r:p1rdt1027lv-p1rlv1085) Units=km Length=0.0676462 bus1=p1rdt1027lv.1.2 bus2=p1rlv1085.1.2 switch=n enabled=y phases=2 Linecode=1P_OH_AL_4/0_Zuzara_0_416_0_2_2_2_2_2_2_2_2_2_2_2_2_2_2_2_2_2_2_2_2_2_2_2_2_2_2_2_2_2

New Line.l(r:p1rdt1028lv-p1rlv1086) Units=km Length=0.016899 bus1=p1rdt1028lv.1.2 bus2=p1rlv1086.1.2 switch=n enabled=y phases=2 Linecode=1P_OH_AL_2/0_Rucina_0_416_0_2_2_2_2_2_2_2_2_2_2_2_2_2_2_2_2_2_2_2_2_2_2_2_2_2_2_2_2_2

New Line.l(r:p1rdt1028lv-p1rlv7211) Units=km Length=0.0420968 bus1=p1rdt1028lv.1.2 bus2=p1rlv7211.1.2 switch=n enabled=y phases=2 Linecode=1P_OH_AL_4/0_Zuzara_0_416_0_2_2_2_2_2_2_2_2_2_2_2_2_2_2_2_2_2_2_2_2_2_2_2_2_2_2_2_2_2

New Line.l(r:p1rdm2814-p1rlv1347) Units=km Length=0.0127725 bus1=p1rdm2814.1.2 bus2=p1rlv1347.1.2 switch=n enabled=y phases=2 Linecode=1P_OH_AL_2/0_Rucina_0_416_0_2_2_2_2_2_2_2_2_2_2_2_2_2_2_2_2_2_2_2_2_2_2_2_2_2_2_2_2_2

New Line.l(r:p1rdm2814-p1rlv9207) Units=km Length=0.0388264 bus1=p1rdm2814.1.2 bus2=p1rlv9207.1.2 switch=n enabled=y phases=2 Linecode=1P_OH_AL_4/0_Zuzara_0_416_0_2_2_2_2_2_2_2_2_2_2_2_2_2_2_2_2_2_2_2_2_2_2_2_2_2_2_2_2_2

New Line.l(r:p1rdm2814-p1rdt1266lv) Units=km Length=0.0154503 bus1=p1rdt1266lv.1.2 bus2=p1rdm2814.1.2 switch=n enabled=y phases=2 Linecode=1P_OH_AL_2/0_Rucina_0_416_0_2_2_2_2_2_2_2_2_2_2_2_2_2_2_2_2_2_2_2_2_2_2_2_2_2_2_2_2_2

New Line.l(r:p1rdm2815-p1rlv8542) Units=km Length=0.0392664 bus1=p1rdm2815.1.2 bus2=p1rlv8542.1.2 switch=n enabled=y phases=2 Linecode=1P_OH_AL_4/0_Zuzara_0_416_0_2_2_2_2_2_2_2_2_2_2_2_2_2_2_2_2_2_2_2_2_2_2_2_2_2_2_2_2_2

New Line.l(r:p1rdm2815-p1rdt1266lv) Units=km Length=0.0148121 bus1=p1rdt1266lv.1.2 bus2=p1rdm2815.1.2 switch=n enabled=y phases=2 Linecode=1P_OH_AL_2/0_Rucina_0_416_0_2_2_2_2_2_2_2_2_2_2_2_2_2_2_2_2_2_2_2_2_2_2_2_2_2_2_2_2_2

New Line.l(r:p1rdt1269lv-p1rlv1350) Units=km Length=0.001 bus1=p1rdt1269lv.1.2 bus2=p1rlv1350.1.2 switch=n enabled=y phases=2 Linecode=1P_OH_AL_4_Periwinkle_0_416_0_2_2_2_2_2_2_2_2_2_2_2_2_2_2_2_2_2_2_2_2_2_2_2_2_2_2_2_2_2

New Line.l(r:p1rdt1394lv-p1rlv1496) Units=km Length=0.00902386 bus1=p1rdt1394lv.1.2 bus2=p1rlv1496.1.2 switch=n enabled=y phases=2 Linecode=1P_OH_AL_2/0_Rucina_0_416_0_2_2_2_2_2_2_2_2_2_2_2_2_2_2_2_2_2_2_2_2_2_2_2_2_2_2_2_2_2

New Line.l(r:p1rdt1394lv-p1rlv5396) Units=km Length=0.0545116 bus1=p1rdt1394lv.1.2 bus2=p1rlv5396.1.2 switch=n enabled=y phases=2 Linecode=1P_OH_AL_4/0_Zuzara_0_416_0_2_2_2_2_2_2_2_2_2_2_2_2_2_2_2_2_2_2_2_2_2_2_2_2_2_2_2_2_2

New Line.l(r:p1rdt1395lv-p1rlv1497) Units=km Length=0.001 bus1=p1rdt1395lv.1.2 bus2=p1rlv1497.1.2 switch=n enabled=y phases=2 Linecode=1P_OH_AL_4_Periwinkle_0_416_0_2_2_2_2_2_2_2_2_2_2_2_2_2_2_2_2_2_2_2_2_2_2_2_2_2_2_2_2_2

New Line.l(r:p1rdt1604lv-p1rlv1743) Units=km Length=0.062756 bus1=p1rdt1604lv.1.2 bus2=p1rlv1743.1.2 switch=n enabled=y phases=2 Linecode=1P_OH_AL_4/0_Zuzara_0_416_0_2_2_2_2_2_2_2_2_2_2_2_2_2_2_2_2_2_2_2_2_2_2_2_2_2_2_2_2_2

New Line.l(r:p1rdt1605lv-p1rlv1744) Units=km Length=0.018259 bus1=p1rdt1605lv.1.2 bus2=p1rlv1744.1.2 switch=n enabled=y phases=2 Linecode=1P_OH_AL_2/0_Rucina_0_416_0_2_2_2_2_2_2_2_2_2_2_2_2_2_2_2_2_2_2_2_2_2_2_2_2_2_2_2_2_2

New Line.l(r:p1rdt1605lv-p1rlv7346) Units=km Length=0.018259 bus1=p1rdt1605lv.1.2 bus2=p1rlv7346.1.2 switch=n enabled=y phases=2 Linecode=1P_OH_AL_2/0_Rucina_0_416_0_2_2_2_2_2_2_2_2_2_2_2_2_2_2_2_2_2_2_2_2_2_2_2_2_2_2_2_2_2

New Line.l(r:p1rdt1606lv-p1rlv1745) Units=km Length=0.0159518 bus1=p1rdt1606lv.1.2 bus2=p1rlv1745.1.2 switch=n enabled=y phases=2 Linecode=1P_OH_AL_2/0_Rucina_0_416_0_2_2_2_2_2_2_2_2_2_2_2_2_2_2_2_2_2_2_2_2_2_2_2_2_2_2_2_2_2

New Line.l(r:p1rdt1606lv-p1rlv11389) Units=km Length=0.0159518 bus1=p1rdt1606lv.1.2 bus2=p1rlv11389.1.2 switch=n enabled=y phases=2 Linecode=1P_OH_AL_2/0_Rucina_0_416_0_2_2_2_2_2_2_2_2_2_2_2_2_2_2_2_2_2_2_2_2_2_2_2_2_2_2_2_2_2

New Line.l(r:p1rdm3535-p1rlv1746) Units=km Length=0.0055122 bus1=p1rdm3535.1.2 bus2=p1rlv1746.1.2 switch=n enabled=y phases=2 Linecode=1P_OH_AL_2/0_Rucina_0_416_0_2_2_2_2_2_2_2_2_2_2_2_2_2_2_2_2_2_2_2_2_2_2_2_2_2_2_2_2_2

New Line.l(r:p1rdm3535-p1rlv3635) Units=km Length=0.0287061 bus1=p1rdm3535.1.2 bus2=p1rlv3635.1.2 switch=n enabled=y phases=2 Linecode=1P_OH_AL_4/0_Zuzara_0_416_0_2_2_2_2_2_2_2_2_2_2_2_2_2_2_2_2_2_2_2_2_2_2_2_2_2_2_2_2_2

New Line.l(r:p1rdm3535-p1rlv10699) Units=km Length=0.0443956 bus1=p1rdm3535.1.2 bus2=p1rlv10699.1.2 switch=n enabled=y phases=2 Linecode=1P_OH_AL_4/0_Zuzara_0_416_0_2_2_2_2_2_2_2_2_2_2_2_2_2_2_2_2_2_2_2_2_2_2_2_2_2_2_2_2_2

New Line.l(r:p1rdm3535-p1rdt1607lv) Units=km Length=0.011788600000000002 bus1=p1rdt1607lv.1.2 bus2=p1rdm3535.1.2 switch=n enabled=y phases=2 Linecode=1P_OH_AL_2/0_Rucina_0_416_0_2_2_2_2_2_2_2_2_2_2_2_2_2_2_2_2_2_2_2_2_2_2_2_2_2_2_2_2_2

New Line.l(r:p1rdm3537-p1rlv5130) Units=km Length=0.0299285 bus1=p1rdm3537.1.2 bus2=p1rlv5130.1.2 switch=n enabled=y phases=2 Linecode=1P_OH_AL_4/0_Zuzara_0_416_0_2_2_2_2_2_2_2_2_2_2_2_2_2_2_2_2_2_2_2_2_2_2_2_2_2_2_2_2_2

New Line.l(r:p1rdm3537-p1rdt1607lv) Units=km Length=0.0254273 bus1=p1rdt1607lv.1.2 bus2=p1rdm3537.1.2 switch=n enabled=y phases=2 Linecode=1P_OH_AL_2/0_Rucina_0_416_0_2_2_2_2_2_2_2_2_2_2_2_2_2_2_2_2_2_2_2_2_2_2_2_2_2_2_2_2_2

New Line.l(r:p1rdt1838lv-p1rlv2027) Units=km Length=0.072282 bus1=p1rdt1838lv.1.2 bus2=p1rlv2027.1.2 switch=n enabled=y phases=2 Linecode=1P_OH_AL_4/0_Zuzara_0_416_0_2_2_2_2_2_2_2_2_2_2_2_2_2_2_2_2_2_2_2_2_2_2_2_2_2_2_2_2_2

New Line.l(r:p1rdm3993-p1rlv7496) Units=km Length=0.0702107 bus1=p1rdm3993.1.2 bus2=p1rlv7496.1.2 switch=n enabled=y phases=2 Linecode=1P_OH_AL_4/0_Zuzara_0_416_0_2_2_2_2_2_2_2_2_2_2_2_2_2_2_2_2_2_2_2_2_2_2_2_2_2_2_2_2_2

New Line.l(r:p1rdm3993-p1rdt1838lv) Units=km Length=0.0353483 bus1=p1rdt1838lv.1.2 bus2=p1rdm3993.1.2 switch=n enabled=y phases=2 Linecode=1P_OH_AL_4/0_Zuzara_0_416_0_2_2_2_2_2_2_2_2_2_2_2_2_2_2_2_2_2_2_2_2_2_2_2_2_2_2_2_2_2

New Line.l(r:p1rdm3994-p1rlv10151) Units=km Length=0.0729595 bus1=p1rdm3994.1.2 bus2=p1rlv10151.1.2 switch=n enabled=y phases=2 Linecode=1P_OH_AL_4/0_Zuzara_0_416_0_2_2_2_2_2_2_2_2_2_2_2_2_2_2_2_2_2_2_2_2_2_2_2_2_2_2_2_2_2

New Line.l(r:p1rdm3994-p1rdt1838lv) Units=km Length=0.0353483 bus1=p1rdt1838lv.1.2 bus2=p1rdm3994.1.2 switch=n enabled=y phases=2 Linecode=1P_OH_AL_4/0_Zuzara_0_416_0_2_2_2_2_2_2_2_2_2_2_2_2_2_2_2_2_2_2_2_2_2_2_2_2_2_2_2_2_2

New Line.l(r:p1rdt1839lv-p1rlv2028) Units=km Length=0.007102510000000001 bus1=p1rdt1839lv.1.2 bus2=p1rlv2028.1.2 switch=n enabled=y phases=2 Linecode=1P_OH_AL_2/0_Rucina_0_416_0_2_2_2_2_2_2_2_2_2_2_2_2_2_2_2_2_2_2_2_2_2_2_2_2_2_2_2_2_2

New Line.l(r:p1rdt1839lv-p1rlv7906) Units=km Length=0.007102510000000001 bus1=p1rdt1839lv.1.2 bus2=p1rlv7906.1.2 switch=n enabled=y phases=2 Linecode=1P_OH_AL_2/0_Rucina_0_416_0_2_2_2_2_2_2_2_2_2_2_2_2_2_2_2_2_2_2_2_2_2_2_2_2_2_2_2_2_2

New Line.l(r:p1rdm4456-p1rlv2302) Units=km Length=0.0307583 bus1=p1rdm4456.1.2 bus2=p1rlv2302.1.2 switch=n enabled=y phases=2 Linecode=1P_OH_AL_4/0_Zuzara_0_416_0_2_2_2_2_2_2_2_2_2_2_2_2_2_2_2_2_2_2_2_2_2_2_2_2_2_2_2_2_2

New Line.l(r:p1rdm4456-p1rdt2067lv) Units=km Length=0.014510300000000002 bus1=p1rdt2067lv.1.2 bus2=p1rdm4456.1.2 switch=n enabled=y phases=2 Linecode=1P_OH_AL_2/0_Rucina_0_416_0_2_2_2_2_2_2_2_2_2_2_2_2_2_2_2_2_2_2_2_2_2_2_2_2_2_2_2_2_2

New Line.l(r:p1rdm4457-p1rlv8541) Units=km Length=0.018393 bus1=p1rdm4457.1.2 bus2=p1rlv8541.1.2 switch=n enabled=y phases=2 Linecode=1P_OH_AL_2/0_Rucina_0_416_0_2_2_2_2_2_2_2_2_2_2_2_2_2_2_2_2_2_2_2_2_2_2_2_2_2_2_2_2_2

New Line.l(r:p1rdm4457-p1rdt2067lv) Units=km Length=0.0145044 bus1=p1rdt2067lv.1.2 bus2=p1rdm4457.1.2 switch=n enabled=y phases=2 Linecode=1P_OH_AL_2/0_Rucina_0_416_0_2_2_2_2_2_2_2_2_2_2_2_2_2_2_2_2_2_2_2_2_2_2_2_2_2_2_2_2_2

New Line.l(r:p1rdm4458-p1rlv2304) Units=km Length=0.0180883 bus1=p1rdm4458.1.2 bus2=p1rlv2304.1.2 switch=n enabled=y phases=2 Linecode=1P_UG_AL_4/0_Sweetbriar_0_416_0_2_2_2_2_2_2_2_2_2_2_2_2_2_2_2_2_2_2_2_2_2_2_2_2_2_2_2_2_2

New Line.l(r:p1rdm4458-p1rdt2068lv) Units=km Length=0.025795500000000002 bus1=p1rdt2068lv.1.2 bus2=p1rdm4458.1.2 switch=n enabled=y phases=2 Linecode=1P_UG_AL_4/0_Sweetbriar_0_416_0_2_2_2_2_2_2_2_2_2_2_2_2_2_2_2_2_2_2_2_2_2_2_2_2_2_2_2_2_2

New Line.l(r:p1rdm4459-p1rlv8158) Units=km Length=0.0398612 bus1=p1rdm4459.1.2 bus2=p1rlv8158.1.2 switch=n enabled=y phases=2 Linecode=1P_UG_AL_1/0_Brenau_0_416_0_2_2_2_2_2_2_2_2_2_2_2_2_2_2_2_2_2_2_2_2_2_2_2_2_2_2_2_2_2

New Line.l(r:p1rdm4459-p1rdt2068lv) Units=km Length=0.0173805 bus1=p1rdt2068lv.1.2 bus2=p1rdm4459.1.2 switch=n enabled=y phases=2 Linecode=1P_UG_AL_1/0_Brenau_0_416_0_2_2_2_2_2_2_2_2_2_2_2_2_2_2_2_2_2_2_2_2_2_2_2_2_2_2_2_2_2

New Line.l(r:p1rdt2069lv-p1rlv2305) Units=km Length=0.0298434 bus1=p1rdt2069lv.1.2 bus2=p1rlv2305.1.2 switch=n enabled=y phases=2 Linecode=1P_OH_AL_4/0_Zuzara_0_416_0_2_2_2_2_2_2_2_2_2_2_2_2_2_2_2_2_2_2_2_2_2_2_2_2_2_2_2_2_2

New Line.l(r:p1rdm4669-p1rlv2437) Units=km Length=0.0198999 bus1=p1rdm4669.1.2 bus2=p1rlv2437.1.2 switch=n enabled=y phases=2 Linecode=1P_OH_AL_2/0_Rucina_0_416_0_2_2_2_2_2_2_2_2_2_2_2_2_2_2_2_2_2_2_2_2_2_2_2_2_2_2_2_2_2

New Line.l(r:p1rdm4669-p1rdt2184lv) Units=km Length=0.0394084 bus1=p1rdt2184lv.1.2 bus2=p1rdm4669.1.2 switch=n enabled=y phases=2 Linecode=1P_OH_AL_4/0_Zuzara_0_416_0_2_2_2_2_2_2_2_2_2_2_2_2_2_2_2_2_2_2_2_2_2_2_2_2_2_2_2_2_2

New Line.l(r:p1rdm4670-p1rlv9206) Units=km Length=0.0128225 bus1=p1rdm4670.1.2 bus2=p1rlv9206.1.2 switch=n enabled=y phases=2 Linecode=1P_OH_AL_2/0_Rucina_0_416_0_2_2_2_2_2_2_2_2_2_2_2_2_2_2_2_2_2_2_2_2_2_2_2_2_2_2_2_2_2

New Line.l(r:p1rdm4670-p1rdt2184lv) Units=km Length=0.0394084 bus1=p1rdt2184lv.1.2 bus2=p1rdm4670.1.2 switch=n enabled=y phases=2 Linecode=1P_OH_AL_4/0_Zuzara_0_416_0_2_2_2_2_2_2_2_2_2_2_2_2_2_2_2_2_2_2_2_2_2_2_2_2_2_2_2_2_2

New Line.l(r:p1rdt2185lv-p1rlv2438) Units=km Length=0.0311389 bus1=p1rdt2185lv.1.2 bus2=p1rlv2438.1.2 switch=n enabled=y phases=2 Linecode=1P_OH_AL_4/0_Zuzara_0_416_0_2_2_2_2_2_2_2_2_2_2_2_2_2_2_2_2_2_2_2_2_2_2_2_2_2_2_2_2_2

New Line.l(r:p1rdt2185lv-p1rlv4152) Units=km Length=0.0446436 bus1=p1rdt2185lv.1.2 bus2=p1rlv4152.1.2 switch=n enabled=y phases=2 Linecode=1P_OH_AL_4/0_Zuzara_0_416_0_2_2_2_2_2_2_2_2_2_2_2_2_2_2_2_2_2_2_2_2_2_2_2_2_2_2_2_2_2

New Line.l(r:p1rdt2186lv-p1rlv8280) Units=km Length=0.00932631 bus1=p1rdt2186lv.1.2 bus2=p1rlv8280.1.2 switch=n enabled=y phases=2 Linecode=1P_OH_AL_2/0_Rucina_0_416_0_2_2_2_2_2_2_2_2_2_2_2_2_2_2_2_2_2_2_2_2_2_2_2_2_2_2_2_2_2

New Line.l(r:p1rdm4673-p1rlv2440) Units=km Length=0.00626566 bus1=p1rdm4673.1.2 bus2=p1rlv2440.1.2 switch=n enabled=y phases=2 Linecode=1P_OH_AL_2/0_Rucina_0_416_0_2_2_2_2_2_2_2_2_2_2_2_2_2_2_2_2_2_2_2_2_2_2_2_2_2_2_2_2_2

New Line.l(r:p1rdm4673-p1rdt2186lv) Units=km Length=0.0101046 bus1=p1rdt2186lv.1.2 bus2=p1rdm4673.1.2 switch=n enabled=y phases=2 Linecode=1P_OH_AL_2/0_Rucina_0_416_0_2_2_2_2_2_2_2_2_2_2_2_2_2_2_2_2_2_2_2_2_2_2_2_2_2_2_2_2_2

New Line.l(r:p1rdm4675-p1rlv10698) Units=km Length=0.011256 bus1=p1rdm4675.1.2 bus2=p1rlv10698.1.2 switch=n enabled=y phases=2 Linecode=1P_OH_AL_2/0_Rucina_0_416_0_2_2_2_2_2_2_2_2_2_2_2_2_2_2_2_2_2_2_2_2_2_2_2_2_2_2_2_2_2

New Line.l(r:p1rdm4675-p1rdt2186lv) Units=km Length=0.0101031 bus1=p1rdt2186lv.1.2 bus2=p1rdm4675.1.2 switch=n enabled=y phases=2 Linecode=1P_OH_AL_2/0_Rucina_0_416_0_2_2_2_2_2_2_2_2_2_2_2_2_2_2_2_2_2_2_2_2_2_2_2_2_2_2_2_2_2

New Line.l(r:p1rdt2282lv-p1rlv2556) Units=km Length=0.0472407 bus1=p1rdt2282lv.1.2 bus2=p1rlv2556.1.2 switch=n enabled=y phases=2 Linecode=1P_OH_AL_4/0_Zuzara_0_416_0_2_2_2_2_2_2_2_2_2_2_2_2_2_2_2_2_2_2_2_2_2_2_2_2_2_2_2_2_2

New Line.l(r:p1rdt2291lv-p1rlv2568) Units=km Length=0.0660787 bus1=p1rdt2291lv.1.2 bus2=p1rlv2568.1.2 switch=n enabled=y phases=2 Linecode=1P_UG_AL_4/0_Sweetbriar_0_416_0_2_2_2_2_2_2_2_2_2_2_2_2_2_2_2_2_2_2_2_2_2_2_2_2_2_2_2_2_2

New Line.l(r:p1rdm4874-p1rlv2569) Units=km Length=0.00924105 bus1=p1rdm4874.1.2 bus2=p1rlv2569.1.2 switch=n enabled=y phases=2 Linecode=1P_OH_AL_2/0_Rucina_0_416_0_2_2_2_2_2_2_2_2_2_2_2_2_2_2_2_2_2_2_2_2_2_2_2_2_2_2_2_2_2

New Line.l(r:p1rdm4874-p1rdt2292lv) Units=km Length=0.0155402 bus1=p1rdt2292lv.1.2 bus2=p1rdm4874.1.2 switch=n enabled=y phases=2 Linecode=1P_OH_AL_2/0_Rucina_0_416_0_2_2_2_2_2_2_2_2_2_2_2_2_2_2_2_2_2_2_2_2_2_2_2_2_2_2_2_2_2

New Line.l(r:p1rdm4875-p1rlv6068) Units=km Length=0.030673 bus1=p1rdm4875.1.2 bus2=p1rlv6068.1.2 switch=n enabled=y phases=2 Linecode=1P_OH_AL_4/0_Zuzara_0_416_0_2_2_2_2_2_2_2_2_2_2_2_2_2_2_2_2_2_2_2_2_2_2_2_2_2_2_2_2_2

New Line.l(r:p1rdm4875-p1rdt2292lv) Units=km Length=0.015541800000000001 bus1=p1rdt2292lv.1.2 bus2=p1rdm4875.1.2 switch=n enabled=y phases=2 Linecode=1P_OH_AL_2/0_Rucina_0_416_0_2_2_2_2_2_2_2_2_2_2_2_2_2_2_2_2_2_2_2_2_2_2_2_2_2_2_2_2_2

New Line.l(r:p1rdt2397lv-p1rlv2704) Units=km Length=0.0126978 bus1=p1rdt2397lv.1.2 bus2=p1rlv2704.1.2 switch=n enabled=y phases=2 Linecode=1P_OH_AL_2/0_Rucina_0_416_0_2_2_2_2_2_2_2_2_2_2_2_2_2_2_2_2_2_2_2_2_2_2_2_2_2_2_2_2_2

New Line.l(r:p1rdm5075-p1rlv11813) Units=km Length=0.0469295 bus1=p1rdm5075.1.2 bus2=p1rlv11813.1.2 switch=n enabled=y phases=2 Linecode=1P_OH_AL_4/0_Zuzara_0_416_0_2_2_2_2_2_2_2_2_2_2_2_2_2_2_2_2_2_2_2_2_2_2_2_2_2_2_2_2_2

New Line.l(r:p1rdm5075-p1rdt2397lv) Units=km Length=0.0197802 bus1=p1rdt2397lv.1.2 bus2=p1rdm5075.1.2 switch=n enabled=y phases=2 Linecode=1P_OH_AL_2/0_Rucina_0_416_0_2_2_2_2_2_2_2_2_2_2_2_2_2_2_2_2_2_2_2_2_2_2_2_2_2_2_2_2_2

New Line.l(r:p1rdt2502lv-p1rlv2841) Units=km Length=0.00733597 bus1=p1rdt2502lv.1.2 bus2=p1rlv2841.1.2 switch=n enabled=y phases=2 Linecode=1P_OH_AL_2/0_Rucina_0_416_0_2_2_2_2_2_2_2_2_2_2_2_2_2_2_2_2_2_2_2_2_2_2_2_2_2_2_2_2_2

New Line.l(r:p1rdt2502lv-p1rlv3636) Units=km Length=0.00633793 bus1=p1rdt2502lv.1.2 bus2=p1rlv3636.1.2 switch=n enabled=y phases=2 Linecode=1P_OH_AL_2/0_Rucina_0_416_0_2_2_2_2_2_2_2_2_2_2_2_2_2_2_2_2_2_2_2_2_2_2_2_2_2_2_2_2_2

New Line.l(r:p1rdt2591lv-p1rlv2956) Units=km Length=0.054385 bus1=p1rdt2591lv.1.2 bus2=p1rlv2956.1.2 switch=n enabled=y phases=2 Linecode=1P_OH_AL_4/0_Zuzara_0_416_0_2_2_2_2_2_2_2_2_2_2_2_2_2_2_2_2_2_2_2_2_2_2_2_2_2_2_2_2_2

New Line.l(r:p1rdt2597lv-p1rlv2962) Units=km Length=0.0230944 bus1=p1rdt2597lv.1.2 bus2=p1rlv2962.1.2 switch=n enabled=y phases=2 Linecode=1P_UG_AL_1/0_Brenau_0_416_0_2_2_2_2_2_2_2_2_2_2_2_2_2_2_2_2_2_2_2_2_2_2_2_2_2_2_2_2_2

New Line.l(r:p1rdt2598lv-p1rlv2963) Units=km Length=0.0184146 bus1=p1rdt2598lv.1.2 bus2=p1rlv2963.1.2 switch=n enabled=y phases=2 Linecode=1P_OH_AL_2/0_Rucina_0_416_0_2_2_2_2_2_2_2_2_2_2_2_2_2_2_2_2_2_2_2_2_2_2_2_2_2_2_2_2_2

New Line.l(r:p1rdt2598lv-p1rlv3092) Units=km Length=0.0184146 bus1=p1rdt2598lv.1.2 bus2=p1rlv3092.1.2 switch=n enabled=y phases=2 Linecode=1P_OH_AL_2/0_Rucina_0_416_0_2_2_2_2_2_2_2_2_2_2_2_2_2_2_2_2_2_2_2_2_2_2_2_2_2_2_2_2_2

New Line.l(r:p1rdm5665-p1rlv3084) Units=km Length=0.0194489 bus1=p1rdm5665.1.2 bus2=p1rlv3084.1.2 switch=n enabled=y phases=2 Linecode=1P_OH_AL_2/0_Rucina_0_416_0_2_2_2_2_2_2_2_2_2_2_2_2_2_2_2_2_2_2_2_2_2_2_2_2_2_2_2_2_2

New Line.l(r:p1rdm5665-p1rdt2697lv) Units=km Length=0.0574471 bus1=p1rdt2697lv.1.2 bus2=p1rdm5665.1.2 switch=n enabled=y phases=2 Linecode=1P_OH_AL_4/0_Zuzara_0_416_0_2_2_2_2_2_2_2_2_2_2_2_2_2_2_2_2_2_2_2_2_2_2_2_2_2_2_2_2_2

New Line.l(r:p1rdm5666-p1rlv12085) Units=km Length=0.0121863 bus1=p1rdm5666.1.2 bus2=p1rlv12085.1.2 switch=n enabled=y phases=2 Linecode=1P_OH_AL_2/0_Rucina_0_416_0_2_2_2_2_2_2_2_2_2_2_2_2_2_2_2_2_2_2_2_2_2_2_2_2_2_2_2_2_2

New Line.l(r:p1rdm5666-p1rdt2697lv) Units=km Length=0.0383101 bus1=p1rdt2697lv.1.2 bus2=p1rdm5666.1.2 switch=n enabled=y phases=2 Linecode=1P_OH_AL_4/0_Zuzara_0_416_0_2_2_2_2_2_2_2_2_2_2_2_2_2_2_2_2_2_2_2_2_2_2_2_2_2_2_2_2_2

New Line.l(r:p1rdm5837-p1rlv3213) Units=km Length=0.0342916 bus1=p1rdm5837.1.2 bus2=p1rlv3213.1.2 switch=n enabled=y phases=2 Linecode=1P_UG_AL_4/0_Sweetbriar_0_416_0_2_2_2_2_2_2_2_2_2_2_2_2_2_2_2_2_2_2_2_2_2_2_2_2_2_2_2_2_2

New Line.l(r:p1rdm5837-p1rdt2794lv) Units=km Length=0.00977336 bus1=p1rdt2794lv.1.2 bus2=p1rdm5837.1.2 switch=n enabled=y phases=2 Linecode=1P_UG_AL_4/0_Sweetbriar_0_416_0_2_2_2_2_2_2_2_2_2_2_2_2_2_2_2_2_2_2_2_2_2_2_2_2_2_2_2_2_2

New Line.l(r:p1rdm5838-p1rlv4156) Units=km Length=0.044424 bus1=p1rdm5838.1.2 bus2=p1rlv4156.1.2 switch=n enabled=y phases=2 Linecode=1P_UG_AL_4/0_Sweetbriar_0_416_0_2_2_2_2_2_2_2_2_2_2_2_2_2_2_2_2_2_2_2_2_2_2_2_2_2_2_2_2_2

New Line.l(r:p1rdm5838-p1rdt2794lv) Units=km Length=0.009782620000000002 bus1=p1rdt2794lv.1.2 bus2=p1rdm5838.1.2 switch=n enabled=y phases=2 Linecode=1P_UG_AL_4/0_Sweetbriar_0_416_0_2_2_2_2_2_2_2_2_2_2_2_2_2_2_2_2_2_2_2_2_2_2_2_2_2_2_2_2_2

New Line.l(r:p1rdt2795lv-p1rlv3214) Units=km Length=0.0193691 bus1=p1rdt2795lv.1.2 bus2=p1rlv3214.1.2 switch=n enabled=y phases=2 Linecode=1P_OH_AL_2/0_Rucina_0_416_0_2_2_2_2_2_2_2_2_2_2_2_2_2_2_2_2_2_2_2_2_2_2_2_2_2_2_2_2_2

New Line.l(r:p1rdt2795lv-p1rlv9474) Units=km Length=0.0193691 bus1=p1rdt2795lv.1.2 bus2=p1rlv9474.1.2 switch=n enabled=y phases=2 Linecode=1P_OH_AL_2/0_Rucina_0_416_0_2_2_2_2_2_2_2_2_2_2_2_2_2_2_2_2_2_2_2_2_2_2_2_2_2_2_2_2_2

New Line.l(r:p1rdt2796lv-p1rlv3215) Units=km Length=0.061822 bus1=p1rdt2796lv.1.2 bus2=p1rlv3215.1.2 switch=n enabled=y phases=2 Linecode=1P_OH_AL_4/0_Zuzara_0_416_0_2_2_2_2_2_2_2_2_2_2_2_2_2_2_2_2_2_2_2_2_2_2_2_2_2_2_2_2_2

New Line.l(r:p1rdt2894lv-p1rlv3339) Units=km Length=0.001 bus1=p1rdt2894lv.1.2 bus2=p1rlv3339.1.2 switch=n enabled=y phases=2 Linecode=1P_OH_AL_4_Periwinkle_0_416_0_2_2_2_2_2_2_2_2_2_2_2_2_2_2_2_2_2_2_2_2_2_2_2_2_2_2_2_2_2

New Line.l(r:p1rdt2895lv-p1rlv10827) Units=km Length=0.06750690000000001 bus1=p1rdt2895lv.1.2 bus2=p1rlv10827.1.2 switch=n enabled=y phases=2 Linecode=1P_OH_AL_4/0_Zuzara_0_416_0_2_2_2_2_2_2_2_2_2_2_2_2_2_2_2_2_2_2_2_2_2_2_2_2_2_2_2_2_2

New Line.l(r:p1rdm6012-p1rlv3340) Units=km Length=0.0823455 bus1=p1rdm6012.1.2 bus2=p1rlv3340.1.2 switch=n enabled=y phases=2 Linecode=1P_OH_AL_4/0_Zuzara_0_416_0_2_2_2_2_2_2_2_2_2_2_2_2_2_2_2_2_2_2_2_2_2_2_2_2_2_2_2_2_2

New Line.l(r:p1rdm6012-p1rdt2895lv) Units=km Length=0.0182502 bus1=p1rdt2895lv.1.2 bus2=p1rdm6012.1.2 switch=n enabled=y phases=2 Linecode=1P_OH_AL_2/0_Rucina_0_416_0_2_2_2_2_2_2_2_2_2_2_2_2_2_2_2_2_2_2_2_2_2_2_2_2_2_2_2_2_2

New Line.l(r:p1rdm6014-p1rlv11129) Units=km Length=0.0509826 bus1=p1rdm6014.1.2 bus2=p1rlv11129.1.2 switch=n enabled=y phases=2 Linecode=1P_OH_AL_4/0_Zuzara_0_416_0_2_2_2_2_2_2_2_2_2_2_2_2_2_2_2_2_2_2_2_2_2_2_2_2_2_2_2_2_2

New Line.l(r:p1rdm6014-p1rdt2895lv) Units=km Length=0.0182589 bus1=p1rdt2895lv.1.2 bus2=p1rdm6014.1.2 switch=n enabled=y phases=2 Linecode=1P_OH_AL_2/0_Rucina_0_416_0_2_2_2_2_2_2_2_2_2_2_2_2_2_2_2_2_2_2_2_2_2_2_2_2_2_2_2_2_2

New Line.l(r:p1rdt2896lv-p1rlv3341) Units=km Length=0.0176429 bus1=p1rdt2896lv.1.2 bus2=p1rlv3341.1.2 switch=n enabled=y phases=2 Linecode=1P_OH_AL_2/0_Rucina_0_416_0_2_2_2_2_2_2_2_2_2_2_2_2_2_2_2_2_2_2_2_2_2_2_2_2_2_2_2_2_2

New Line.l(r:p1rdt2898lv-p1rlv3343) Units=km Length=0.05627970000000001 bus1=p1rdt2898lv.1.2 bus2=p1rlv3343.1.2 switch=n enabled=y phases=2 Linecode=1P_OH_AL_4/0_Zuzara_0_416_0_2_2_2_2_2_2_2_2_2_2_2_2_2_2_2_2_2_2_2_2_2_2_2_2_2_2_2_2_2

New Line.l(r:p1rdt2898lv-p1rlv10560) Units=km Length=0.0322324 bus1=p1rdt2898lv.1.2 bus2=p1rlv10560.1.2 switch=n enabled=y phases=2 Linecode=1P_OH_AL_4/0_Zuzara_0_416_0_2_2_2_2_2_2_2_2_2_2_2_2_2_2_2_2_2_2_2_2_2_2_2_2_2_2_2_2_2

New Line.l(r:p1rdt2898lv-p1rlv11816) Units=km Length=0.0847472 bus1=p1rdt2898lv.1.2 bus2=p1rlv11816.1.2 switch=n enabled=y phases=2 Linecode=1P_OH_AL_4/0_Zuzara_0_416_0_2_2_2_2_2_2_2_2_2_2_2_2_2_2_2_2_2_2_2_2_2_2_2_2_2_2_2_2_2

New Line.l(r:p1rdm6400-p1rlv3637) Units=km Length=0.0347262 bus1=p1rdm6400.1.2 bus2=p1rlv3637.1.2 switch=n enabled=y phases=2 Linecode=1P_OH_AL_4/0_Zuzara_0_416_0_2_2_2_2_2_2_2_2_2_2_2_2_2_2_2_2_2_2_2_2_2_2_2_2_2_2_2_2_2

New Line.l(r:p1rdm6400-p1rdt3108lv) Units=km Length=0.0388859 bus1=p1rdt3108lv.1.2 bus2=p1rdm6400.1.2 switch=n enabled=y phases=2 Linecode=1P_OH_AL_4/0_Zuzara_0_416_0_2_2_2_2_2_2_2_2_2_2_2_2_2_2_2_2_2_2_2_2_2_2_2_2_2_2_2_2_2

New Line.l(r:p1rdm6401-p1rlv4447) Units=km Length=0.0386805 bus1=p1rdm6401.1.2 bus2=p1rlv4447.1.2 switch=n enabled=y phases=2 Linecode=1P_OH_AL_4/0_Zuzara_0_416_0_2_2_2_2_2_2_2_2_2_2_2_2_2_2_2_2_2_2_2_2_2_2_2_2_2_2_2_2_2
