New Line.l(r:p1rdt66lv-p1rlv68) Units=km Length=0.0324653 bus1=p1rdt66lv.1.2 bus2=p1rlv68.1.2 switch=n enabled=y phases=2 Linecode=1P_OH_AL_4/0_Zuzara_0_416_0_2_2_2_2_2_2_2_2_2_2_2_2_2_2_2_2_2_2_2_2_2_2_2_2_2_2_2_2_2

New Line.l(r:p1rdm170-p1rlv11742) Units=km Length=0.0384594 bus1=p1rdm170.1.2 bus2=p1rlv11742.1.2 switch=n enabled=y phases=2 Linecode=1P_OH_AL_4/0_Zuzara_0_416_0_2_2_2_2_2_2_2_2_2_2_2_2_2_2_2_2_2_2_2_2_2_2_2_2_2_2_2_2_2

New Line.l(r:p1rdm170-p1rdt66lv) Units=km Length=0.0198402 bus1=p1rdt66lv.1.2 bus2=p1rdm170.1.2 switch=n enabled=y phases=2 Linecode=1P_OH_AL_2/0_Rucina_0_416_0_2_2_2_2_2_2_2_2_2_2_2_2_2_2_2_2_2_2_2_2_2_2_2_2_2_2_2_2_2

New Line.l(r:p1rdt75lv-p1rlv77) Units=km Length=0.009376440000000002 bus1=p1rdt75lv.1.2 bus2=p1rlv77.1.2 switch=n enabled=y phases=2 Linecode=1P_OH_AL_2/0_Rucina_0_416_0_2_2_2_2_2_2_2_2_2_2_2_2_2_2_2_2_2_2_2_2_2_2_2_2_2_2_2_2_2

New Line.l(r:p1rdt75lv-p1rlv2906) Units=km Length=0.009376440000000002 bus1=p1rdt75lv.1.2 bus2=p1rlv2906.1.2 switch=n enabled=y phases=2 Linecode=1P_OH_AL_2/0_Rucina_0_416_0_2_2_2_2_2_2_2_2_2_2_2_2_2_2_2_2_2_2_2_2_2_2_2_2_2_2_2_2_2

New Line.l(r:p1rdt76lv-p1rlv78) Units=km Length=0.0511793 bus1=p1rdt76lv.1.2 bus2=p1rlv78.1.2 switch=n enabled=y phases=2 Linecode=1P_OH_AL_4/0_Zuzara_0_416_0_2_2_2_2_2_2_2_2_2_2_2_2_2_2_2_2_2_2_2_2_2_2_2_2_2_2_2_2_2

New Line.l(r:p1rdt76lv-p1rlv3031) Units=km Length=0.0511793 bus1=p1rdt76lv.1.2 bus2=p1rlv3031.1.2 switch=n enabled=y phases=2 Linecode=1P_OH_AL_4/0_Zuzara_0_416_0_2_2_2_2_2_2_2_2_2_2_2_2_2_2_2_2_2_2_2_2_2_2_2_2_2_2_2_2_2

New Line.l(r:p1rdm209-p1rlv88) Units=km Length=0.11944700000000001 bus1=p1rdm209.1.2 bus2=p1rlv88.1.2 switch=n enabled=y phases=2 Linecode=1P_OH_AL_4/0_Zuzara_0_416_0_2_2_2_2_2_2_2_2_2_2_2_2_2_2_2_2_2_2_2_2_2_2_2_2_2_2_2_2_2

New Line.l(r:p1rdm209-p1rlv9035) Units=km Length=0.105384 bus1=p1rdm209.1.2 bus2=p1rlv9035.1.2 switch=n enabled=y phases=2 Linecode=1P_OH_AL_4/0_Zuzara_0_416_0_2_2_2_2_2_2_2_2_2_2_2_2_2_2_2_2_2_2_2_2_2_2_2_2_2_2_2_2_2

New Line.l(r:p1rdm209-p1rdt85lv) Units=km Length=0.0196291 bus1=p1rdt85lv.1.2 bus2=p1rdm209.1.2 switch=n enabled=y phases=2 Linecode=1P_OH_AL_2/0_Rucina_0_416_0_2_2_2_2_2_2_2_2_2_2_2_2_2_2_2_2_2_2_2_2_2_2_2_2_2_2_2_2_2

New Line.l(r:p1rdm211-p1rlv13859) Units=km Length=0.0315029 bus1=p1rdm211.1.2 bus2=p1rlv13859.1.2 switch=n enabled=y phases=2 Linecode=1P_OH_AL_4/0_Zuzara_0_416_0_2_2_2_2_2_2_2_2_2_2_2_2_2_2_2_2_2_2_2_2_2_2_2_2_2_2_2_2_2

New Line.l(r:p1rdm211-p1rdt85lv) Units=km Length=0.019638 bus1=p1rdt85lv.1.2 bus2=p1rdm211.1.2 switch=n enabled=y phases=2 Linecode=1P_OH_AL_2/0_Rucina_0_416_0_2_2_2_2_2_2_2_2_2_2_2_2_2_2_2_2_2_2_2_2_2_2_2_2_2_2_2_2_2

New Line.l(r:p1rdt86lv-p1rlv89) Units=km Length=0.001 bus1=p1rdt86lv.1.2 bus2=p1rlv89.1.2 switch=n enabled=y phases=2 Linecode=1P_OH_AL_4_Periwinkle_0_416_0_2_2_2_2_2_2_2_2_2_2_2_2_2_2_2_2_2_2_2_2_2_2_2_2_2_2_2_2_2

New Line.l(r:p1rdt187lv-p1rlv194) Units=km Length=0.0451434 bus1=p1rdt187lv.1.2 bus2=p1rlv194.1.2 switch=n enabled=y phases=2 Linecode=1P_OH_AL_4/0_Zuzara_0_416_0_2_2_2_2_2_2_2_2_2_2_2_2_2_2_2_2_2_2_2_2_2_2_2_2_2_2_2_2_2

New Line.l(r:p1rdt187lv-p1rlv5176) Units=km Length=0.0117524 bus1=p1rdt187lv.1.2 bus2=p1rlv5176.1.2 switch=n enabled=y phases=2 Linecode=1P_OH_AL_2/0_Rucina_0_416_0_2_2_2_2_2_2_2_2_2_2_2_2_2_2_2_2_2_2_2_2_2_2_2_2_2_2_2_2_2

New Line.l(r:p1rdt187lv-p1rlv6366) Units=km Length=0.0327183 bus1=p1rdt187lv.1.2 bus2=p1rlv6366.1.2 switch=n enabled=y phases=2 Linecode=1P_OH_AL_4/0_Zuzara_0_416_0_2_2_2_2_2_2_2_2_2_2_2_2_2_2_2_2_2_2_2_2_2_2_2_2_2_2_2_2_2

New Line.l(r:p1rdt187lv-p1rlv8199) Units=km Length=0.014472000000000002 bus1=p1rdt187lv.1.2 bus2=p1rlv8199.1.2 switch=n enabled=y phases=2 Linecode=1P_OH_AL_2/0_Rucina_0_416_0_2_2_2_2_2_2_2_2_2_2_2_2_2_2_2_2_2_2_2_2_2_2_2_2_2_2_2_2_2

New Line.l(r:p1rdt188lv-p1rlv195) Units=km Length=0.0367851 bus1=p1rdt188lv.1.2 bus2=p1rlv195.1.2 switch=n enabled=y phases=2 Linecode=1P_OH_AL_4/0_Zuzara_0_416_0_2_2_2_2_2_2_2_2_2_2_2_2_2_2_2_2_2_2_2_2_2_2_2_2_2_2_2_2_2

New Line.l(r:p1rdm454-p1rlv196) Units=km Length=0.0322238 bus1=p1rdm454.1.2 bus2=p1rlv196.1.2 switch=n enabled=y phases=2 Linecode=1P_OH_AL_4/0_Zuzara_0_416_0_2_2_2_2_2_2_2_2_2_2_2_2_2_2_2_2_2_2_2_2_2_2_2_2_2_2_2_2_2

New Line.l(r:p1rdm454-p1rdt189lv) Units=km Length=0.0394191 bus1=p1rdt189lv.1.2 bus2=p1rdm454.1.2 switch=n enabled=y phases=2 Linecode=1P_OH_AL_4/0_Zuzara_0_416_0_2_2_2_2_2_2_2_2_2_2_2_2_2_2_2_2_2_2_2_2_2_2_2_2_2_2_2_2_2

New Line.l(r:p1rdm455-p1rlv11037) Units=km Length=0.0339173 bus1=p1rdm455.1.2 bus2=p1rlv11037.1.2 switch=n enabled=y phases=2 Linecode=1P_OH_AL_4/0_Zuzara_0_416_0_2_2_2_2_2_2_2_2_2_2_2_2_2_2_2_2_2_2_2_2_2_2_2_2_2_2_2_2_2

New Line.l(r:p1rdm455-p1rdt189lv) Units=km Length=0.019712 bus1=p1rdt189lv.1.2 bus2=p1rdm455.1.2 switch=n enabled=y phases=2 Linecode=1P_OH_AL_2/0_Rucina_0_416_0_2_2_2_2_2_2_2_2_2_2_2_2_2_2_2_2_2_2_2_2_2_2_2_2_2_2_2_2_2

New Line.l(r:p1rdt190lv-p1rlv197) Units=km Length=0.0160164 bus1=p1rdt190lv.1.2 bus2=p1rlv197.1.2 switch=n enabled=y phases=2 Linecode=1P_OH_AL_2/0_Rucina_0_416_0_2_2_2_2_2_2_2_2_2_2_2_2_2_2_2_2_2_2_2_2_2_2_2_2_2_2_2_2_2

New Line.l(r:p1rdt190lv-p1rlv8077) Units=km Length=0.0160164 bus1=p1rdt190lv.1.2 bus2=p1rlv8077.1.2 switch=n enabled=y phases=2 Linecode=1P_OH_AL_2/0_Rucina_0_416_0_2_2_2_2_2_2_2_2_2_2_2_2_2_2_2_2_2_2_2_2_2_2_2_2_2_2_2_2_2

New Line.l(r:p1rdt195lv-p1rlv202) Units=km Length=0.030259600000000005 bus1=p1rdt195lv.1.2 bus2=p1rlv202.1.2 switch=n enabled=y phases=2 Linecode=1P_OH_AL_4/0_Zuzara_0_416_0_2_2_2_2_2_2_2_2_2_2_2_2_2_2_2_2_2_2_2_2_2_2_2_2_2_2_2_2_2

New Line.l(r:p1rdt196lv-p1rlv203) Units=km Length=0.029107 bus1=p1rdt196lv.1.2 bus2=p1rlv203.1.2 switch=n enabled=y phases=2 Linecode=1P_OH_AL_4/0_Zuzara_0_416_0_2_2_2_2_2_2_2_2_2_2_2_2_2_2_2_2_2_2_2_2_2_2_2_2_2_2_2_2_2

New Line.l(r:p1rdt197lv-p1rlv204) Units=km Length=0.0523099 bus1=p1rdt197lv.1.2 bus2=p1rlv204.1.2 switch=n enabled=y phases=2 Linecode=1P_OH_AL_4/0_Zuzara_0_416_0_2_2_2_2_2_2_2_2_2_2_2_2_2_2_2_2_2_2_2_2_2_2_2_2_2_2_2_2_2

New Line.l(r:p1rdt197lv-p1rlv3404) Units=km Length=0.0128208 bus1=p1rdt197lv.1.2 bus2=p1rlv3404.1.2 switch=n enabled=y phases=2 Linecode=1P_OH_AL_2/0_Rucina_0_416_0_2_2_2_2_2_2_2_2_2_2_2_2_2_2_2_2_2_2_2_2_2_2_2_2_2_2_2_2_2

New Line.l(r:p1rdt197lv-p1rlv3700) Units=km Length=0.0483887 bus1=p1rdt197lv.1.2 bus2=p1rlv3700.1.2 switch=n enabled=y phases=2 Linecode=1P_OH_AL_4/0_Zuzara_0_416_0_2_2_2_2_2_2_2_2_2_2_2_2_2_2_2_2_2_2_2_2_2_2_2_2_2_2_2_2_2

New Line.l(r:p1rdt197lv-p1rlv5575) Units=km Length=0.08482120000000001 bus1=p1rdt197lv.1.2 bus2=p1rlv5575.1.2 switch=n enabled=y phases=2 Linecode=1P_OH_AL_4/0_Zuzara_0_416_0_2_2_2_2_2_2_2_2_2_2_2_2_2_2_2_2_2_2_2_2_2_2_2_2_2_2_2_2_2

New Line.l(r:p1rdt197lv-p1rlv5728) Units=km Length=0.0155747 bus1=p1rdt197lv.1.2 bus2=p1rlv5728.1.2 switch=n enabled=y phases=2 Linecode=1P_OH_AL_2/0_Rucina_0_416_0_2_2_2_2_2_2_2_2_2_2_2_2_2_2_2_2_2_2_2_2_2_2_2_2_2_2_2_2_2

New Line.l(r:p1rdt197lv-p1rlv7565) Units=km Length=0.0463962 bus1=p1rdt197lv.1.2 bus2=p1rlv7565.1.2 switch=n enabled=y phases=2 Linecode=1P_OH_AL_4/0_Zuzara_0_416_0_2_2_2_2_2_2_2_2_2_2_2_2_2_2_2_2_2_2_2_2_2_2_2_2_2_2_2_2_2

New Line.l(r:p1rdt197lv-p1rlv8595) Units=km Length=0.0702561 bus1=p1rdt197lv.1.2 bus2=p1rlv8595.1.2 switch=n enabled=y phases=2 Linecode=1P_OH_AL_4/0_Zuzara_0_416_0_2_2_2_2_2_2_2_2_2_2_2_2_2_2_2_2_2_2_2_2_2_2_2_2_2_2_2_2_2

New Line.l(r:p1rdt208lv-p1rlv215) Units=km Length=0.0137844 bus1=p1rdt208lv.1.2 bus2=p1rlv215.1.2 switch=n enabled=y phases=2 Linecode=1P_OH_AL_2/0_Rucina_0_416_0_2_2_2_2_2_2_2_2_2_2_2_2_2_2_2_2_2_2_2_2_2_2_2_2_2_2_2_2_2

New Line.l(r:p1rdt325lv-p1rlv334) Units=km Length=0.0272536 bus1=p1rdt325lv.1.2 bus2=p1rlv334.1.2 switch=n enabled=y phases=2 Linecode=1P_OH_AL_4/0_Zuzara_0_416_0_2_2_2_2_2_2_2_2_2_2_2_2_2_2_2_2_2_2_2_2_2_2_2_2_2_2_2_2_2

New Line.l(r:p1rdt325lv-p1rlv13061) Units=km Length=0.0272536 bus1=p1rdt325lv.1.2 bus2=p1rlv13061.1.2 switch=n enabled=y phases=2 Linecode=1P_OH_AL_4/0_Zuzara_0_416_0_2_2_2_2_2_2_2_2_2_2_2_2_2_2_2_2_2_2_2_2_2_2_2_2_2_2_2_2_2

New Line.l(r:p1rdt330lv-p1rlv339) Units=km Length=0.102456 bus1=p1rdt330lv.1.2 bus2=p1rlv339.1.2 switch=n enabled=y phases=2 Linecode=1P_OH_AL_4/0_Zuzara_0_416_0_2_2_2_2_2_2_2_2_2_2_2_2_2_2_2_2_2_2_2_2_2_2_2_2_2_2_2_2_2

New Line.l(r:p1rdt330lv-p1rlv8469) Units=km Length=0.0844483 bus1=p1rdt330lv.1.2 bus2=p1rlv8469.1.2 switch=n enabled=y phases=2 Linecode=1P_OH_AL_4/0_Zuzara_0_416_0_2_2_2_2_2_2_2_2_2_2_2_2_2_2_2_2_2_2_2_2_2_2_2_2_2_2_2_2_2

New Line.l(r:p1rdt330lv-p1rlv11586) Units=km Length=0.062753 bus1=p1rdt330lv.1.2 bus2=p1rlv11586.1.2 switch=n enabled=y phases=2 Linecode=1P_OH_AL_4/0_Zuzara_0_416_0_2_2_2_2_2_2_2_2_2_2_2_2_2_2_2_2_2_2_2_2_2_2_2_2_2_2_2_2_2

New Line.l(r:p1rdt331lv-p1rlv340) Units=km Length=0.001 bus1=p1rdt331lv.1.2 bus2=p1rlv340.1.2 switch=n enabled=y phases=2 Linecode=1P_OH_AL_4_Periwinkle_0_416_0_2_2_2_2_2_2_2_2_2_2_2_2_2_2_2_2_2_2_2_2_2_2_2_2_2_2_2_2_2

New Line.l(r:p1rdt332lv-p1rlv341) Units=km Length=0.0331027 bus1=p1rdt332lv.1.2 bus2=p1rlv341.1.2 switch=n enabled=y phases=2 Linecode=1P_OH_AL_4/0_Zuzara_0_416_0_2_2_2_2_2_2_2_2_2_2_2_2_2_2_2_2_2_2_2_2_2_2_2_2_2_2_2_2_2

New Line.l(r:p1rdt332lv-p1rlv1426) Units=km Length=0.017801 bus1=p1rdt332lv.1.2 bus2=p1rlv1426.1.2 switch=n enabled=y phases=2 Linecode=1P_OH_AL_2/0_Rucina_0_416_0_2_2_2_2_2_2_2_2_2_2_2_2_2_2_2_2_2_2_2_2_2_2_2_2_2_2_2_2_2

New Line.l(r:p1rdt332lv-p1rlv3943) Units=km Length=0.054091 bus1=p1rdt332lv.1.2 bus2=p1rlv3943.1.2 switch=n enabled=y phases=2 Linecode=1P_OH_AL_4/0_Zuzara_0_416_0_2_2_2_2_2_2_2_2_2_2_2_2_2_2_2_2_2_2_2_2_2_2_2_2_2_2_2_2_2

New Line.l(r:p1rdt332lv-p1rlv9815) Units=km Length=0.0618478 bus1=p1rdt332lv.1.2 bus2=p1rlv9815.1.2 switch=n enabled=y phases=2 Linecode=1P_OH_AL_4/0_Zuzara_0_416_0_2_2_2_2_2_2_2_2_2_2_2_2_2_2_2_2_2_2_2_2_2_2_2_2_2_2_2_2_2

New Line.l(r:p1rdt332lv-p1rlv10480) Units=km Length=0.0380956 bus1=p1rdt332lv.1.2 bus2=p1rlv10480.1.2 switch=n enabled=y phases=2 Linecode=1P_OH_AL_4/0_Zuzara_0_416_0_2_2_2_2_2_2_2_2_2_2_2_2_2_2_2_2_2_2_2_2_2_2_2_2_2_2_2_2_2

New Line.l(r:p1rdt349lv-p1rlv358) Units=km Length=0.029048 bus1=p1rdt349lv.1.2 bus2=p1rlv358.1.2 switch=n enabled=y phases=2 Linecode=1P_OH_AL_4/0_Zuzara_0_416_0_2_2_2_2_2_2_2_2_2_2_2_2_2_2_2_2_2_2_2_2_2_2_2_2_2_2_2_2_2

New Line.l(r:p1rdm829-p1rlv359) Units=km Length=0.0940352 bus1=p1rdm829.1.2 bus2=p1rlv359.1.2 switch=n enabled=y phases=2 Linecode=1P_OH_AL_4/0_Zuzara_0_416_0_2_2_2_2_2_2_2_2_2_2_2_2_2_2_2_2_2_2_2_2_2_2_2_2_2_2_2_2_2

New Line.l(r:p1rdm829-p1rdt350lv) Units=km Length=0.0386127 bus1=p1rdt350lv.1.2 bus2=p1rdm829.1.2 switch=n enabled=y phases=2 Linecode=1P_OH_AL_4/0_Zuzara_0_416_0_2_2_2_2_2_2_2_2_2_2_2_2_2_2_2_2_2_2_2_2_2_2_2_2_2_2_2_2_2

New Line.l(r:p1rdm830-p1rlv13346) Units=km Length=0.0994454 bus1=p1rdm830.1.2 bus2=p1rlv13346.1.2 switch=n enabled=y phases=2 Linecode=1P_OH_AL_4/0_Zuzara_0_416_0_2_2_2_2_2_2_2_2_2_2_2_2_2_2_2_2_2_2_2_2_2_2_2_2_2_2_2_2_2

New Line.l(r:p1rdm830-p1rdt350lv) Units=km Length=0.0193099 bus1=p1rdt350lv.1.2 bus2=p1rdm830.1.2 switch=n enabled=y phases=2 Linecode=1P_OH_AL_2/0_Rucina_0_416_0_2_2_2_2_2_2_2_2_2_2_2_2_2_2_2_2_2_2_2_2_2_2_2_2_2_2_2_2_2

New Line.l(r:p1rdm831-p1rlv360) Units=km Length=0.0384865 bus1=p1rdm831.1.2 bus2=p1rlv360.1.2 switch=n enabled=y phases=2 Linecode=1P_OH_AL_4/0_Zuzara_0_416_0_2_2_2_2_2_2_2_2_2_2_2_2_2_2_2_2_2_2_2_2_2_2_2_2_2_2_2_2_2

New Line.l(r:p1rdm831-p1rdt351lv) Units=km Length=0.0186121 bus1=p1rdt351lv.1.2 bus2=p1rdm831.1.2 switch=n enabled=y phases=2 Linecode=1P_OH_AL_2/0_Rucina_0_416_0_2_2_2_2_2_2_2_2_2_2_2_2_2_2_2_2_2_2_2_2_2_2_2_2_2_2_2_2_2

New Line.l(r:p1rdm832-p1rlv1972) Units=km Length=0.0385715 bus1=p1rdm832.1.2 bus2=p1rlv1972.1.2 switch=n enabled=y phases=2 Linecode=1P_OH_AL_4/0_Zuzara_0_416_0_2_2_2_2_2_2_2_2_2_2_2_2_2_2_2_2_2_2_2_2_2_2_2_2_2_2_2_2_2

New Line.l(r:p1rdm832-p1rdt351lv) Units=km Length=0.0186123 bus1=p1rdt351lv.1.2 bus2=p1rdm832.1.2 switch=n enabled=y phases=2 Linecode=1P_OH_AL_2/0_Rucina_0_416_0_2_2_2_2_2_2_2_2_2_2_2_2_2_2_2_2_2_2_2_2_2_2_2_2_2_2_2_2_2

New Line.l(r:p1rdt448lv-p1rlv458) Units=km Length=0.0729825 bus1=p1rdt448lv.1.2 bus2=p1rlv458.1.2 switch=n enabled=y phases=2 Linecode=1P_OH_AL_4/0_Zuzara_0_416_0_2_2_2_2_2_2_2_2_2_2_2_2_2_2_2_2_2_2_2_2_2_2_2_2_2_2_2_2_2

New Line.l(r:p1rdt451lv-p1rlv461) Units=km Length=0.041858 bus1=p1rdt451lv.1.2 bus2=p1rlv461.1.2 switch=n enabled=y phases=2 Linecode=1P_OH_AL_4/0_Zuzara_0_416_0_2_2_2_2_2_2_2_2_2_2_2_2_2_2_2_2_2_2_2_2_2_2_2_2_2_2_2_2_2

New Line.l(r:p1rdt451lv-p1rlv1022) Units=km Length=0.0537778 bus1=p1rdt451lv.1.2 bus2=p1rlv1022.1.2 switch=n enabled=y phases=2 Linecode=1P_OH_AL_4/0_Zuzara_0_416_0_2_2_2_2_2_2_2_2_2_2_2_2_2_2_2_2_2_2_2_2_2_2_2_2_2_2_2_2_2

New Line.l(r:p1rdt451lv-p1rlv1266) Units=km Length=0.0134925 bus1=p1rdt451lv.1.2 bus2=p1rlv1266.1.2 switch=n enabled=y phases=2 Linecode=1P_OH_AL_2/0_Rucina_0_416_0_2_2_2_2_2_2_2_2_2_2_2_2_2_2_2_2_2_2_2_2_2_2_2_2_2_2_2_2_2

New Line.l(r:p1rdt451lv-p1rlv2495) Units=km Length=0.06020840000000001 bus1=p1rdt451lv.1.2 bus2=p1rlv2495.1.2 switch=n enabled=y phases=2 Linecode=1P_OH_AL_4/0_Zuzara_0_416_0_2_2_2_2_2_2_2_2_2_2_2_2_2_2_2_2_2_2_2_2_2_2_2_2_2_2_2_2_2

New Line.l(r:p1rdt451lv-p1rlv9668) Units=km Length=0.054447600000000006 bus1=p1rdt451lv.1.2 bus2=p1rlv9668.1.2 switch=n enabled=y phases=2 Linecode=1P_OH_AL_4/0_Zuzara_0_416_0_2_2_2_2_2_2_2_2_2_2_2_2_2_2_2_2_2_2_2_2_2_2_2_2_2_2_2_2_2

New Line.l(r:p1rdt451lv-p1rlv11045) Units=km Length=0.0688533 bus1=p1rdt451lv.1.2 bus2=p1rlv11045.1.2 switch=n enabled=y phases=2 Linecode=1P_OH_AL_4/0_Zuzara_0_416_0_2_2_2_2_2_2_2_2_2_2_2_2_2_2_2_2_2_2_2_2_2_2_2_2_2_2_2_2_2

New Line.l(r:p1rdt452lv-p1rlv462) Units=km Length=0.05005830000000001 bus1=p1rdt452lv.1.2 bus2=p1rlv462.1.2 switch=n enabled=y phases=2 Linecode=1P_OH_AL_4/0_Zuzara_0_416_0_2_2_2_2_2_2_2_2_2_2_2_2_2_2_2_2_2_2_2_2_2_2_2_2_2_2_2_2_2

New Line.l(r:p1rdt452lv-p1rlv1024) Units=km Length=0.0383398 bus1=p1rdt452lv.1.2 bus2=p1rlv1024.1.2 switch=n enabled=y phases=2 Linecode=1P_OH_AL_4/0_Zuzara_0_416_0_2_2_2_2_2_2_2_2_2_2_2_2_2_2_2_2_2_2_2_2_2_2_2_2_2_2_2_2_2

New Line.l(r:p1rdm1078-p1rlv6235) Units=km Length=0.0303588 bus1=p1rdm1078.1.2 bus2=p1rlv6235.1.2 switch=n enabled=y phases=2 Linecode=1P_OH_AL_4/0_Zuzara_0_416_0_2_2_2_2_2_2_2_2_2_2_2_2_2_2_2_2_2_2_2_2_2_2_2_2_2_2_2_2_2

New Line.l(r:p1rdm1078-p1rdt452lv) Units=km Length=0.0199419 bus1=p1rdt452lv.1.2 bus2=p1rdm1078.1.2 switch=n enabled=y phases=2 Linecode=1P_OH_AL_2/0_Rucina_0_416_0_2_2_2_2_2_2_2_2_2_2_2_2_2_2_2_2_2_2_2_2_2_2_2_2_2_2_2_2_2

New Line.l(r:p1rdm1079-p1rlv8326) Units=km Length=0.0190471 bus1=p1rdm1079.1.2 bus2=p1rlv8326.1.2 switch=n enabled=y phases=2 Linecode=1P_OH_AL_2/0_Rucina_0_416_0_2_2_2_2_2_2_2_2_2_2_2_2_2_2_2_2_2_2_2_2_2_2_2_2_2_2_2_2_2

New Line.l(r:p1rdm1079-p1rdt452lv) Units=km Length=0.0398661 bus1=p1rdt452lv.1.2 bus2=p1rdm1079.1.2 switch=n enabled=y phases=2 Linecode=1P_OH_AL_4/0_Zuzara_0_416_0_2_2_2_2_2_2_2_2_2_2_2_2_2_2_2_2_2_2_2_2_2_2_2_2_2_2_2_2_2

New Line.l(r:p1rdt474lv-p1rlv4386) Units=km Length=0.0196339 bus1=p1rdt474lv.1.2 bus2=p1rlv4386.1.2 switch=n enabled=y phases=2 Linecode=1P_OH_AL_2/0_Rucina_0_416_0_2_2_2_2_2_2_2_2_2_2_2_2_2_2_2_2_2_2_2_2_2_2_2_2_2_2_2_2_2

New Line.l(r:p1rdm1121-p1rlv485) Units=km Length=0.0201624 bus1=p1rdm1121.1.2 bus2=p1rlv485.1.2 switch=n enabled=y phases=2 Linecode=1P_OH_AL_2/0_Rucina_0_416_0_2_2_2_2_2_2_2_2_2_2_2_2_2_2_2_2_2_2_2_2_2_2_2_2_2_2_2_2_2

New Line.l(r:p1rdm1121-p1rdt474lv) Units=km Length=0.0182091 bus1=p1rdt474lv.1.2 bus2=p1rdm1121.1.2 switch=n enabled=y phases=2 Linecode=1P_OH_AL_2/0_Rucina_0_416_0_2_2_2_2_2_2_2_2_2_2_2_2_2_2_2_2_2_2_2_2_2_2_2_2_2_2_2_2_2

New Line.l(r:p1rdt475lv-p1rlv486) Units=km Length=0.027184000000000003 bus1=p1rdt475lv.1.2 bus2=p1rlv486.1.2 switch=n enabled=y phases=2 Linecode=1P_OH_AL_4/0_Zuzara_0_416_0_2_2_2_2_2_2_2_2_2_2_2_2_2_2_2_2_2_2_2_2_2_2_2_2_2_2_2_2_2

New Line.l(r:p1rdt475lv-p1rlv6495) Units=km Length=0.027184000000000003 bus1=p1rdt475lv.1.2 bus2=p1rlv6495.1.2 switch=n enabled=y phases=2 Linecode=1P_OH_AL_4/0_Zuzara_0_416_0_2_2_2_2_2_2_2_2_2_2_2_2_2_2_2_2_2_2_2_2_2_2_2_2_2_2_2_2_2

New Line.l(r:p1rdt477lv-p1rlv5744) Units=km Length=0.06940110000000001 bus1=p1rdt477lv.1.2 bus2=p1rlv5744.1.2 switch=n enabled=y phases=2 Linecode=1P_OH_AL_4/0_Zuzara_0_416_0_2_2_2_2_2_2_2_2_2_2_2_2_2_2_2_2_2_2_2_2_2_2_2_2_2_2_2_2_2

New Line.l(r:p1rdm1129-p1rlv488) Units=km Length=0.0362594 bus1=p1rdm1129.1.2 bus2=p1rlv488.1.2 switch=n enabled=y phases=2 Linecode=1P_OH_AL_4/0_Zuzara_0_416_0_2_2_2_2_2_2_2_2_2_2_2_2_2_2_2_2_2_2_2_2_2_2_2_2_2_2_2_2_2

New Line.l(r:p1rdm1129-p1rdt477lv) Units=km Length=0.0199896 bus1=p1rdt477lv.1.2 bus2=p1rdm1129.1.2 switch=n enabled=y phases=2 Linecode=1P_OH_AL_2/0_Rucina_0_416_0_2_2_2_2_2_2_2_2_2_2_2_2_2_2_2_2_2_2_2_2_2_2_2_2_2_2_2_2_2

New Line.l(r:p1rdt478lv-p1rlv489) Units=km Length=0.0531693 bus1=p1rdt478lv.1.2 bus2=p1rlv489.1.2 switch=n enabled=y phases=2 Linecode=1P_OH_AL_4/0_Zuzara_0_416_0_2_2_2_2_2_2_2_2_2_2_2_2_2_2_2_2_2_2_2_2_2_2_2_2_2_2_2_2_2

New Line.l(r:p1rdt478lv-p1rlv11618) Units=km Length=0.0711609 bus1=p1rdt478lv.1.2 bus2=p1rlv11618.1.2 switch=n enabled=y phases=2 Linecode=1P_OH_AL_4/0_Zuzara_0_416_0_2_2_2_2_2_2_2_2_2_2_2_2_2_2_2_2_2_2_2_2_2_2_2_2_2_2_2_2_2

New Line.l(r:p1rdm1133-p1rlv490) Units=km Length=0.0356323 bus1=p1rdm1133.1.2 bus2=p1rlv490.1.2 switch=n enabled=y phases=2 Linecode=1P_OH_AL_4/0_Zuzara_0_416_0_2_2_2_2_2_2_2_2_2_2_2_2_2_2_2_2_2_2_2_2_2_2_2_2_2_2_2_2_2

New Line.l(r:p1rdm1134-p1rlv9154) Units=km Length=0.0338342 bus1=p1rdm1134.1.2 bus2=p1rlv9154.1.2 switch=n enabled=y phases=2 Linecode=1P_OH_AL_4/0_Zuzara_0_416_0_2_2_2_2_2_2_2_2_2_2_2_2_2_2_2_2_2_2_2_2_2_2_2_2_2_2_2_2_2

New Line.l(r:p1rdm1133-p1rdm1134) Units=km Length=0.0483607 bus1=p1rdm1133.1.2 bus2=p1rdm1134.1.2 switch=n enabled=y phases=2 Linecode=1P_OH_AL_4/0_Zuzara_0_416_0_2_2_2_2_2_2_2_2_2_2_2_2_2_2_2_2_2_2_2_2_2_2_2_2_2_2_2_2_2

New Line.l(r:p1rdm1133-p1rdt479lv) Units=km Length=0.0140361 bus1=p1rdt479lv.1.2 bus2=p1rdm1133.1.2 switch=n enabled=y phases=2 Linecode=1P_OH_AL_2/0_Rucina_0_416_0_2_2_2_2_2_2_2_2_2_2_2_2_2_2_2_2_2_2_2_2_2_2_2_2_2_2_2_2_2

New Line.l(r:p1rdt573lv-p1rlv587) Units=km Length=0.0815964 bus1=p1rdt573lv.1.2 bus2=p1rlv587.1.2 switch=n enabled=y phases=2 Linecode=1P_OH_AL_4/0_Zuzara_0_416_0_2_2_2_2_2_2_2_2_2_2_2_2_2_2_2_2_2_2_2_2_2_2_2_2_2_2_2_2_2

New Line.l(r:p1rdt574lv-p1rlv588) Units=km Length=0.0579263 bus1=p1rdt574lv.1.2 bus2=p1rlv588.1.2 switch=n enabled=y phases=2 Linecode=1P_OH_AL_4/0_Zuzara_0_416_0_2_2_2_2_2_2_2_2_2_2_2_2_2_2_2_2_2_2_2_2_2_2_2_2_2_2_2_2_2

New Line.l(r:p1rdt574lv-p1rlv5722) Units=km Length=0.0481501 bus1=p1rdt574lv.1.2 bus2=p1rlv5722.1.2 switch=n enabled=y phases=2 Linecode=1P_OH_AL_4/0_Zuzara_0_416_0_2_2_2_2_2_2_2_2_2_2_2_2_2_2_2_2_2_2_2_2_2_2_2_2_2_2_2_2_2

New Line.l(r:p1rdt575lv-p1rlv589) Units=km Length=0.0247936 bus1=p1rdt575lv.1.2 bus2=p1rlv589.1.2 switch=n enabled=y phases=2 Linecode=1P_OH_AL_2/0_Rucina_0_416_0_2_2_2_2_2_2_2_2_2_2_2_2_2_2_2_2_2_2_2_2_2_2_2_2_2_2_2_2_2

New Line.l(r:p1rdm1344-p1rlv1800) Units=km Length=0.0758805 bus1=p1rdm1344.1.2 bus2=p1rlv1800.1.2 switch=n enabled=y phases=2 Linecode=1P_OH_AL_4/0_Zuzara_0_416_0_2_2_2_2_2_2_2_2_2_2_2_2_2_2_2_2_2_2_2_2_2_2_2_2_2_2_2_2_2

New Line.l(r:p1rdm1344-p1rdt575lv) Units=km Length=0.0197072 bus1=p1rdt575lv.1.2 bus2=p1rdm1344.1.2 switch=n enabled=y phases=2 Linecode=1P_OH_AL_2/0_Rucina_0_416_0_2_2_2_2_2_2_2_2_2_2_2_2_2_2_2_2_2_2_2_2_2_2_2_2_2_2_2_2_2

New Line.l(r:p1rdt577lv-p1rlv591) Units=km Length=0.025089800000000002 bus1=p1rdt577lv.1.2 bus2=p1rlv591.1.2 switch=n enabled=y phases=2 Linecode=1P_OH_AL_2/0_Rucina_0_416_0_2_2_2_2_2_2_2_2_2_2_2_2_2_2_2_2_2_2_2_2_2_2_2_2_2_2_2_2_2

New Line.l(r:p1rdt578lv-p1rlv592) Units=km Length=0.0544954 bus1=p1rdt578lv.1.2 bus2=p1rlv592.1.2 switch=n enabled=y phases=2 Linecode=1P_OH_AL_4/0_Zuzara_0_416_0_2_2_2_2_2_2_2_2_2_2_2_2_2_2_2_2_2_2_2_2_2_2_2_2_2_2_2_2_2

New Line.l(r:p1rdt706lv-p1rlv737) Units=km Length=0.001 bus1=p1rdt706lv.1.2 bus2=p1rlv737.1.2 switch=n enabled=y phases=2 Linecode=1P_OH_AL_4_Periwinkle_0_416_0_2_2_2_2_2_2_2_2_2_2_2_2_2_2_2_2_2_2_2_2_2_2_2_2_2_2_2_2_2

New Line.l(r:p1rdt711lv-p1rlv3551) Units=km Length=0.03472700000000001 bus1=p1rdt711lv.1.2 bus2=p1rlv3551.1.2 switch=n enabled=y phases=2 Linecode=1P_OH_AL_4/0_Zuzara_0_416_0_2_2_2_2_2_2_2_2_2_2_2_2_2_2_2_2_2_2_2_2_2_2_2_2_2_2_2_2_2

New Line.l(r:p1rdm1632-p1rlv743) Units=km Length=0.0126162 bus1=p1rdm1632.1.2 bus2=p1rlv743.1.2 switch=n enabled=y phases=2 Linecode=1P_OH_AL_2/0_Rucina_0_416_0_2_2_2_2_2_2_2_2_2_2_2_2_2_2_2_2_2_2_2_2_2_2_2_2_2_2_2_2_2

New Line.l(r:p1rdm1632-p1rdt711lv) Units=km Length=0.0170002 bus1=p1rdt711lv.1.2 bus2=p1rdm1632.1.2 switch=n enabled=y phases=2 Linecode=1P_OH_AL_2/0_Rucina_0_416_0_2_2_2_2_2_2_2_2_2_2_2_2_2_2_2_2_2_2_2_2_2_2_2_2_2_2_2_2_2

New Line.l(r:p1rdt713lv-p1rlv4648) Units=km Length=0.012455900000000002 bus1=p1rdt713lv.1.2 bus2=p1rlv4648.1.2 switch=n enabled=y phases=2 Linecode=1P_OH_AL_2/0_Rucina_0_416_0_2_2_2_2_2_2_2_2_2_2_2_2_2_2_2_2_2_2_2_2_2_2_2_2_2_2_2_2_2

New Line.l(r:p1rdm1635-p1rlv745) Units=km Length=0.0158578 bus1=p1rdm1635.1.2 bus2=p1rlv745.1.2 switch=n enabled=y phases=2 Linecode=1P_OH_AL_2/0_Rucina_0_416_0_2_2_2_2_2_2_2_2_2_2_2_2_2_2_2_2_2_2_2_2_2_2_2_2_2_2_2_2_2

New Line.l(r:p1rdm1635-p1rdt713lv) Units=km Length=0.0168452 bus1=p1rdt713lv.1.2 bus2=p1rdm1635.1.2 switch=n enabled=y phases=2 Linecode=1P_OH_AL_2/0_Rucina_0_416_0_2_2_2_2_2_2_2_2_2_2_2_2_2_2_2_2_2_2_2_2_2_2_2_2_2_2_2_2_2

New Line.l(r:p1rdm1637-p1rlv4793) Units=km Length=0.0129965 bus1=p1rdm1637.1.2 bus2=p1rlv4793.1.2 switch=n enabled=y phases=2 Linecode=1P_OH_AL_2/0_Rucina_0_416_0_2_2_2_2_2_2_2_2_2_2_2_2_2_2_2_2_2_2_2_2_2_2_2_2_2_2_2_2_2

New Line.l(r:p1rdm1637-p1rlv9530) Units=km Length=0.0139964 bus1=p1rdm1637.1.2 bus2=p1rlv9530.1.2 switch=n enabled=y phases=2 Linecode=1P_OH_AL_2/0_Rucina_0_416_0_2_2_2_2_2_2_2_2_2_2_2_2_2_2_2_2_2_2_2_2_2_2_2_2_2_2_2_2_2

New Line.l(r:p1rdm1637-p1rdt713lv) Units=km Length=0.0168452 bus1=p1rdt713lv.1.2 bus2=p1rdm1637.1.2 switch=n enabled=y phases=2 Linecode=1P_OH_AL_2/0_Rucina_0_416_0_2_2_2_2_2_2_2_2_2_2_2_2_2_2_2_2_2_2_2_2_2_2_2_2_2_2_2_2_2

New Line.l(r:p1rdt714lv-p1rlv746) Units=km Length=0.0355533 bus1=p1rdt714lv.1.2 bus2=p1rlv746.1.2 switch=n enabled=y phases=2 Linecode=1P_OH_AL_4/0_Zuzara_0_416_0_2_2_2_2_2_2_2_2_2_2_2_2_2_2_2_2_2_2_2_2_2_2_2_2_2_2_2_2_2

New Line.l(r:p1rdt715lv-p1rlv747) Units=km Length=0.0380171 bus1=p1rdt715lv.1.2 bus2=p1rlv747.1.2 switch=n enabled=y phases=2 Linecode=1P_OH_AL_4/0_Zuzara_0_416_0_2_2_2_2_2_2_2_2_2_2_2_2_2_2_2_2_2_2_2_2_2_2_2_2_2_2_2_2_2

New Line.l(r:p1rdt715lv-p1rlv1554) Units=km Length=0.0270177 bus1=p1rdt715lv.1.2 bus2=p1rlv1554.1.2 switch=n enabled=y phases=2 Linecode=1P_OH_AL_4/0_Zuzara_0_416_0_2_2_2_2_2_2_2_2_2_2_2_2_2_2_2_2_2_2_2_2_2_2_2_2_2_2_2_2_2

New Line.l(r:p1rdt715lv-p1rlv2494) Units=km Length=0.00200178 bus1=p1rdt715lv.1.2 bus2=p1rlv2494.1.2 switch=n enabled=y phases=2 Linecode=1P_OH_AL_4_Periwinkle_0_416_0_2_2_2_2_2_2_2_2_2_2_2_2_2_2_2_2_2_2_2_2_2_2_2_2_2_2_2_2_2

New Line.l(r:p1rdt715lv-p1rlv13068) Units=km Length=0.0219209 bus1=p1rdt715lv.1.2 bus2=p1rlv13068.1.2 switch=n enabled=y phases=2 Linecode=1P_OH_AL_2/0_Rucina_0_416_0_2_2_2_2_2_2_2_2_2_2_2_2_2_2_2_2_2_2_2_2_2_2_2_2_2_2_2_2_2

New Line.l(r:p1rdt743lv-p1rlv776) Units=km Length=0.0677386 bus1=p1rdt743lv.1.2 bus2=p1rlv776.1.2 switch=n enabled=y phases=2 Linecode=1P_OH_AL_4/0_Zuzara_0_416_0_2_2_2_2_2_2_2_2_2_2_2_2_2_2_2_2_2_2_2_2_2_2_2_2_2_2_2_2_2

New Line.l(r:p1rdm1703-p1rlv10501) Units=km Length=0.040508 bus1=p1rdm1703.1.2 bus2=p1rlv10501.1.2 switch=n enabled=y phases=2 Linecode=1P_OH_AL_4/0_Zuzara_0_416_0_2_2_2_2_2_2_2_2_2_2_2_2_2_2_2_2_2_2_2_2_2_2_2_2_2_2_2_2_2

New Line.l(r:p1rdm1703-p1rdt743lv) Units=km Length=0.019537400000000003 bus1=p1rdt743lv.1.2 bus2=p1rdm1703.1.2 switch=n enabled=y phases=2 Linecode=1P_OH_AL_2/0_Rucina_0_416_0_2_2_2_2_2_2_2_2_2_2_2_2_2_2_2_2_2_2_2_2_2_2_2_2_2_2_2_2_2

New Line.l(r:p1rdt838lv-p1rlv877) Units=km Length=0.0373818 bus1=p1rdt838lv.1.2 bus2=p1rlv877.1.2 switch=n enabled=y phases=2 Linecode=1P_OH_AL_4/0_Zuzara_0_416_0_2_2_2_2_2_2_2_2_2_2_2_2_2_2_2_2_2_2_2_2_2_2_2_2_2_2_2_2_2

New Line.l(r:p1rdt838lv-p1rlv1256) Units=km Length=0.0289158 bus1=p1rdt838lv.1.2 bus2=p1rlv1256.1.2 switch=n enabled=y phases=2 Linecode=1P_OH_AL_4/0_Zuzara_0_416_0_2_2_2_2_2_2_2_2_2_2_2_2_2_2_2_2_2_2_2_2_2_2_2_2_2_2_2_2_2

New Line.l(r:p1rdt838lv-p1rlv11033) Units=km Length=0.05586100000000001 bus1=p1rdt838lv.1.2 bus2=p1rlv11033.1.2 switch=n enabled=y phases=2 Linecode=1P_OH_AL_4/0_Zuzara_0_416_0_2_2_2_2_2_2_2_2_2_2_2_2_2_2_2_2_2_2_2_2_2_2_2_2_2_2_2_2_2

New Line.l(r:p1rdt843lv-p1rlv6615) Units=km Length=0.0106996 bus1=p1rdt843lv.1.2 bus2=p1rlv6615.1.2 switch=n enabled=y phases=2 Linecode=1P_OH_AL_2/0_Rucina_0_416_0_2_2_2_2_2_2_2_2_2_2_2_2_2_2_2_2_2_2_2_2_2_2_2_2_2_2_2_2_2

New Line.l(r:p1rdm1916-p1rlv883) Units=km Length=0.0159519 bus1=p1rdm1916.1.2 bus2=p1rlv883.1.2 switch=n enabled=y phases=2 Linecode=1P_OH_AL_2/0_Rucina_0_416_0_2_2_2_2_2_2_2_2_2_2_2_2_2_2_2_2_2_2_2_2_2_2_2_2_2_2_2_2_2

New Line.l(r:p1rdm1916-p1rdt843lv) Units=km Length=0.0545927 bus1=p1rdt843lv.1.2 bus2=p1rdm1916.1.2 switch=n enabled=y phases=2 Linecode=1P_OH_AL_4/0_Zuzara_0_416_0_2_2_2_2_2_2_2_2_2_2_2_2_2_2_2_2_2_2_2_2_2_2_2_2_2_2_2_2_2

New Line.l(r:p1rdm1917-p1rlv5574) Units=km Length=0.0120085 bus1=p1rdm1917.1.2 bus2=p1rlv5574.1.2 switch=n enabled=y phases=2 Linecode=1P_OH_AL_2/0_Rucina_0_416_0_2_2_2_2_2_2_2_2_2_2_2_2_2_2_2_2_2_2_2_2_2_2_2_2_2_2_2_2_2

New Line.l(r:p1rdm1917-p1rdt843lv) Units=km Length=0.0337019 bus1=p1rdt843lv.1.2 bus2=p1rdm1917.1.2 switch=n enabled=y phases=2 Linecode=1P_OH_AL_4/0_Zuzara_0_416_0_2_2_2_2_2_2_2_2_2_2_2_2_2_2_2_2_2_2_2_2_2_2_2_2_2_2_2_2_2

New Line.l(r:p1rdt844lv-p1rlv884) Units=km Length=0.011738 bus1=p1rdt844lv.1.2 bus2=p1rlv884.1.2 switch=n enabled=y phases=2 Linecode=1P_OH_AL_2/0_Rucina_0_416_0_2_2_2_2_2_2_2_2_2_2_2_2_2_2_2_2_2_2_2_2_2_2_2_2_2_2_2_2_2

New Line.l(r:p1rdm1920-p1rlv3699) Units=km Length=0.0307454 bus1=p1rdm1920.1.2 bus2=p1rlv3699.1.2 switch=n enabled=y phases=2 Linecode=1P_OH_AL_4/0_Zuzara_0_416_0_2_2_2_2_2_2_2_2_2_2_2_2_2_2_2_2_2_2_2_2_2_2_2_2_2_2_2_2_2

New Line.l(r:p1rdm1920-p1rdt844lv) Units=km Length=0.0110091 bus1=p1rdt844lv.1.2 bus2=p1rdm1920.1.2 switch=n enabled=y phases=2 Linecode=1P_OH_AL_2/0_Rucina_0_416_0_2_2_2_2_2_2_2_2_2_2_2_2_2_2_2_2_2_2_2_2_2_2_2_2_2_2_2_2_2

New Line.l(r:p1rdt858lv-p1rlv900) Units=km Length=0.0425289 bus1=p1rdt858lv.1.2 bus2=p1rlv900.1.2 switch=n enabled=y phases=2 Linecode=1P_OH_AL_4/0_Zuzara_0_416_0_2_2_2_2_2_2_2_2_2_2_2_2_2_2_2_2_2_2_2_2_2_2_2_2_2_2_2_2_2

New Line.l(r:p1rdm1959-p1rlv1961) Units=km Length=0.0442571 bus1=p1rdm1959.1.2 bus2=p1rlv1961.1.2 switch=n enabled=y phases=2 Linecode=1P_OH_AL_4/0_Zuzara_0_416_0_2_2_2_2_2_2_2_2_2_2_2_2_2_2_2_2_2_2_2_2_2_2_2_2_2_2_2_2_2

New Line.l(r:p1rdm1959-p1rdt858lv) Units=km Length=0.0198183 bus1=p1rdt858lv.1.2 bus2=p1rdm1959.1.2 switch=n enabled=y phases=2 Linecode=1P_OH_AL_2/0_Rucina_0_416_0_2_2_2_2_2_2_2_2_2_2_2_2_2_2_2_2_2_2_2_2_2_2_2_2_2_2_2_2_2

New Line.l(r:p1rdt860lv-p1rlv9833) Units=km Length=0.0736867 bus1=p1rdt860lv.1.2 bus2=p1rlv9833.1.2 switch=n enabled=y phases=2 Linecode=1P_OH_AL_4/0_Zuzara_0_416_0_2_2_2_2_2_2_2_2_2_2_2_2_2_2_2_2_2_2_2_2_2_2_2_2_2_2_2_2_2

New Line.l(r:p1rdm1961-p1rlv902) Units=km Length=0.0612312 bus1=p1rdm1961.1.2 bus2=p1rlv902.1.2 switch=n enabled=y phases=2 Linecode=1P_OH_AL_4/0_Zuzara_0_416_0_2_2_2_2_2_2_2_2_2_2_2_2_2_2_2_2_2_2_2_2_2_2_2_2_2_2_2_2_2

New Line.l(r:p1rdm1961-p1rdt860lv) Units=km Length=0.0178289 bus1=p1rdt860lv.1.2 bus2=p1rdm1961.1.2 switch=n enabled=y phases=2 Linecode=1P_OH_AL_2/0_Rucina_0_416_0_2_2_2_2_2_2_2_2_2_2_2_2_2_2_2_2_2_2_2_2_2_2_2_2_2_2_2_2_2

New Line.l(r:p1rdt862lv-p1rlv904) Units=km Length=0.00717415 bus1=p1rdt862lv.1.2 bus2=p1rlv904.1.2 switch=n enabled=y phases=2 Linecode=1P_OH_AL_2/0_Rucina_0_416_0_2_2_2_2_2_2_2_2_2_2_2_2_2_2_2_2_2_2_2_2_2_2_2_2_2_2_2_2_2

New Line.l(r:p1rdt862lv-p1rlv2090) Units=km Length=0.0237281 bus1=p1rdt862lv.1.2 bus2=p1rlv2090.1.2 switch=n enabled=y phases=2 Linecode=1P_OH_AL_2/0_Rucina_0_416_0_2_2_2_2_2_2_2_2_2_2_2_2_2_2_2_2_2_2_2_2_2_2_2_2_2_2_2_2_2

New Line.l(r:p1rdt862lv-p1rlv7973) Units=km Length=0.0181921 bus1=p1rdt862lv.1.2 bus2=p1rlv7973.1.2 switch=n enabled=y phases=2 Linecode=1P_OH_AL_2/0_Rucina_0_416_0_2_2_2_2_2_2_2_2_2_2_2_2_2_2_2_2_2_2_2_2_2_2_2_2_2_2_2_2_2

New Line.l(r:p1rdt874lv-p1rlv917) Units=km Length=0.0521178 bus1=p1rdt874lv.1.2 bus2=p1rlv917.1.2 switch=n enabled=y phases=2 Linecode=1P_OH_AL_4/0_Zuzara_0_416_0_2_2_2_2_2_2_2_2_2_2_2_2_2_2_2_2_2_2_2_2_2_2_2_2_2_2_2_2_2

New Line.l(r:p1rdm1995-p1rlv918) Units=km Length=0.03840020000000001 bus1=p1rdm1995.1.2 bus2=p1rlv918.1.2 switch=n enabled=y phases=2 Linecode=1P_OH_AL_4/0_Zuzara_0_416_0_2_2_2_2_2_2_2_2_2_2_2_2_2_2_2_2_2_2_2_2_2_2_2_2_2_2_2_2_2

New Line.l(r:p1rdm1995-p1rdt875lv) Units=km Length=0.0197847 bus1=p1rdt875lv.1.2 bus2=p1rdm1995.1.2 switch=n enabled=y phases=2 Linecode=1P_OH_AL_2/0_Rucina_0_416_0_2_2_2_2_2_2_2_2_2_2_2_2_2_2_2_2_2_2_2_2_2_2_2_2_2_2_2_2_2

New Line.l(r:p1rdm1996-p1rlv8911) Units=km Length=0.03941200000000001 bus1=p1rdm1996.1.2 bus2=p1rlv8911.1.2 switch=n enabled=y phases=2 Linecode=1P_OH_AL_4/0_Zuzara_0_416_0_2_2_2_2_2_2_2_2_2_2_2_2_2_2_2_2_2_2_2_2_2_2_2_2_2_2_2_2_2

New Line.l(r:p1rdm1996-p1rdt875lv) Units=km Length=0.039578 bus1=p1rdt875lv.1.2 bus2=p1rdm1996.1.2 switch=n enabled=y phases=2 Linecode=1P_OH_AL_4/0_Zuzara_0_416_0_2_2_2_2_2_2_2_2_2_2_2_2_2_2_2_2_2_2_2_2_2_2_2_2_2_2_2_2_2

New Line.l(r:p1rdt969lv-p1rlv13452) Units=km Length=0.07991500000000001 bus1=p1rdt969lv.1.2 bus2=p1rlv13452.1.2 switch=n enabled=y phases=2 Linecode=1P_OH_AL_4/0_Zuzara_0_416_0_2_2_2_2_2_2_2_2_2_2_2_2_2_2_2_2_2_2_2_2_2_2_2_2_2_2_2_2_2
