Clear

New Circuit.substation_p2uhs3_69 bus1=p2uhs3_69 pu=1.0 basekV=69.0 R1=1e-05 X1=1e-05 R0=1e-05 X0=1e-05

Redirect Transformers.dss
Redirect p2uhs3_1247--p2udt5611/Transformers.dss
Redirect p2uhs3_1247--p2udt8444/Transformers.dss
Redirect Regulators.dss
Redirect p2uhs3_1247--p2udt5611/Loads.dss
Redirect p2uhs3_1247--p2udt8444/Loads.dss
Redirect LineCodes.dss
Redirect p2uhs3_1247--p2udt5611/LineCodes.dss
Redirect p2uhs3_1247--p2udt8444/LineCodes.dss
Redirect Lines.dss
Redirect p2uhs3_1247--p2udt5611/Lines.dss
Redirect p2uhs3_1247--p2udt8444/Lines.dss
Redirect p2uhs3_1247--p2udt5611/Capacitors.dss
Redirect p2uhs3_1247--p2udt8444/Capacitors.dss

Set Voltagebases=[0.2080002494301389, 0.48, 7.199560000000001, 12.47, 69.0]

Calcvoltagebases

Buscoords Buscoords.dss

Solve