New Load.load_p3ulv1596 conn=wye bus1=p3ulv1596.1.2 kV=0.2080002494301389 Vminpu=0.8 Vmaxpu=1.2 model=1 kW=4.86005 kvar=0.9894153325398525 Phases=2

New Load.load_p3ulv1597 conn=wye bus1=p3ulv1597.1.2 kV=0.2080002494301389 Vminpu=0.8 Vmaxpu=1.2 model=1 kW=17.1502 kvar=5.643081646954471 Phases=2

New Load.load_p3ulv2373 conn=wye bus1=p3ulv2373.1.2.3 kV=0.48 Vminpu=0.8 Vmaxpu=1.2 model=1 kW=49.97050000000001 kvar=16.424509077840383 Phases=3

New Load.load_p3ulv4758 conn=wye bus1=p3ulv4758.1.2 kV=0.2080002494301389 Vminpu=0.8 Vmaxpu=1.2 model=1 kW=3.3000300000000005 kvar=1.0905114446179707 Phases=2

New Load.load_p3ulv5567 conn=wye bus1=p3ulv5567.1.2 kV=0.2080002494301389 Vminpu=0.8 Vmaxpu=1.2 model=1 kW=11.0201 kvar=2.2377267460527905 Phases=2

New Load.load_p3ulv6343 conn=wye bus1=p3ulv6343.1.2 kV=0.2080002494301389 Vminpu=0.8 Vmaxpu=1.2 model=1 kW=17.1202 kvar=3.4764048817862805 Phases=2

New Load.load_p3ulv6344 conn=wye bus1=p3ulv6344.1.2 kV=0.2080002494301389 Vminpu=0.8 Vmaxpu=1.2 model=1 kW=0.790008 kvar=0.2599433036202032 Phases=2

New Load.load_p3ulv6345 conn=wye bus1=p3ulv6345.1.2.3 kV=0.48 Vminpu=0.8 Vmaxpu=1.2 model=1 kW=105.63099999999999 kvar=21.449289381430507 Phases=3

New Load.load_p3umv6 conn=wye bus1=p3umv6.1.2.3 kV=12.47 Vminpu=0.8 Vmaxpu=1.2 model=1 kW=859.6990000000001 kvar=174.56932748839282 Phases=3

New Load.load_p3ulv9467 conn=wye bus1=p3ulv9467.1.2 kV=0.2080002494301389 Vminpu=0.8 Vmaxpu=1.2 model=1 kW=7.37007 kvar=1.5004084854871844 Phases=2

New Load.load_p3ulv12625 conn=wye bus1=p3ulv12625.1.2 kV=0.2080002494301389 Vminpu=0.8 Vmaxpu=1.2 model=1 kW=6.950070000000001 kvar=1.4112719055125744 Phases=2

New Load.load_p3ulv15775 conn=wye bus1=p3ulv15775.1.2 kV=0.2080002494301389 Vminpu=0.8 Vmaxpu=1.2 model=1 kW=6.93007 kvar=1.4108327102755023 Phases=2

New Load.load_p3ulv16600 conn=wye bus1=p3ulv16600.1.2.3 kV=0.48 Vminpu=0.8 Vmaxpu=1.2 model=1 kW=24.350200000000005 kvar=8.003523697926354 Phases=3

New Load.load_p3ulv18875 conn=wye bus1=p3ulv18875.1.2.3 kV=0.48 Vminpu=0.8 Vmaxpu=1.2 model=1 kW=29.130299999999995 kvar=5.915159701866735 Phases=3

New Load.load_p3ulv18880 conn=wye bus1=p3ulv18880.1.2 kV=0.2080002494301389 Vminpu=0.8 Vmaxpu=1.2 model=1 kW=1.26001 kvar=0.41010720086574765 Phases=2

New Load.load_p3ulv18881 conn=wye bus1=p3ulv18881.1.2.3 kV=0.48 Vminpu=0.8 Vmaxpu=1.2 model=1 kW=30.6203 kvar=10.064405905808345 Phases=3

New Load.load_p3ulv20396 conn=wye bus1=p3ulv20396.1.2.3 kV=0.48 Vminpu=0.8 Vmaxpu=1.2 model=1 kW=27.9503 kvar=5.675550482318609 Phases=3

New Load.load_p3ulv20399 conn=wye bus1=p3ulv20399.1.2 kV=0.2080002494301389 Vminpu=0.8 Vmaxpu=1.2 model=1 kW=6.68007 kvar=1.359937383450683 Phases=2

New Load.load_p3ulv21941 conn=wye bus1=p3ulv21941.1.2 kV=0.2080002494301389 Vminpu=0.8 Vmaxpu=1.2 model=1 kW=7.01007 kvar=1.419783306700424 Phases=2

New Load.load_p3ulv21942 conn=wye bus1=p3ulv21942.1.2.3 kV=0.48 Vminpu=0.8 Vmaxpu=1.2 model=1 kW=28.810299999999994 kvar=5.8501809304638535 Phases=3

New Load.load_p3ulv24352 conn=wye bus1=p3ulv24352.1.2 kV=0.2080002494301389 Vminpu=0.8 Vmaxpu=1.2 model=1 kW=17.1502 kvar=5.643081646954471 Phases=2

New Load.load_p3ulv24354 conn=wye bus1=p3ulv24354.1.2 kV=0.2080002494301389 Vminpu=0.8 Vmaxpu=1.2 model=1 kW=13.090100000000001 kvar=2.6580581735651796 Phases=2

New Load.load_p3ulv25157 conn=wye bus1=p3ulv25157.1.2.3 kV=0.48 Vminpu=0.8 Vmaxpu=1.2 model=1 kW=267.933 kvar=54.406116119650676 Phases=3

New Load.load_p3ulv26729 conn=wye bus1=p3ulv26729.1.2 kV=0.2080002494301389 Vminpu=0.8 Vmaxpu=1.2 model=1 kW=5.75006 kvar=1.1706047318492825 Phases=2

New Load.load_p3ulv27505 conn=wye bus1=p3ulv27505.1.2.3 kV=0.48 Vminpu=0.8 Vmaxpu=1.2 model=1 kW=243.812 kvar=49.508138166497865 Phases=3

New Load.load_p3ulv28266 conn=wye bus1=p3ulv28266.1.2 kV=0.2080002494301389 Vminpu=0.8 Vmaxpu=1.2 model=1 kW=7.22007 kvar=2.370559192365071 Phases=2

New Load.load_p3ulv31324 conn=wye bus1=p3ulv31324.1.2 kV=0.2080002494301389 Vminpu=0.8 Vmaxpu=1.2 model=1 kW=6.60007 kvar=1.3402013742906727 Phases=2

New Load.load_p3ulv31325 conn=wye bus1=p3ulv31325.1.2.3 kV=0.48 Vminpu=0.8 Vmaxpu=1.2 model=1 kW=144.361 kvar=29.31375130778549 Phases=3

New Load.load_p3ulv34471 conn=wye bus1=p3ulv34471.1.2.3 kV=0.48 Vminpu=0.8 Vmaxpu=1.2 model=1 kW=191.032 kvar=38.79070205823511 Phases=3

New Load.load_p3ulv38275 conn=wye bus1=p3ulv38275.1.2.3 kV=0.48 Vminpu=0.8 Vmaxpu=1.2 model=1 kW=27.990300000000005 kvar=5.683672828743971 Phases=3

New Load.load_p3ulv38289 conn=wye bus1=p3ulv38289.1.2 kV=0.2080002494301389 Vminpu=0.8 Vmaxpu=1.2 model=1 kW=10.590100000000001 kvar=3.480797542254679 Phases=2

New Load.load_p3ulv40609 conn=wye bus1=p3ulv40609.1.2.3 kV=0.48 Vminpu=0.8 Vmaxpu=1.2 model=1 kW=158.522 kvar=32.18926500102362 Phases=3

New Load.load_p3ulv42189 conn=wye bus1=p3ulv42189.1.2.3 kV=0.48 Vminpu=0.8 Vmaxpu=1.2 model=1 kW=71.74070000000002 kvar=14.567570454945916 Phases=3

New Load.load_p3ulv43734 conn=wye bus1=p3ulv43734.1.2 kV=0.2080002494301389 Vminpu=0.8 Vmaxpu=1.2 model=1 kW=13.8001 kvar=2.8022298226153226 Phases=2

New Load.load_p3ulv43735 conn=wye bus1=p3ulv43735.1.2.3 kV=0.48 Vminpu=0.8 Vmaxpu=1.2 model=1 kW=24.4402 kvar=4.962794277627192 Phases=3

New Load.load_p3ulv46154 conn=wye bus1=p3ulv46154.1.2 kV=0.2080002494301389 Vminpu=0.8 Vmaxpu=1.2 model=1 kW=6.46006 kvar=1.30838712713042 Phases=2

New Load.load_p3ulv51433 conn=wye bus1=p3ulv51433.1.2 kV=0.2080002494301389 Vminpu=0.8 Vmaxpu=1.2 model=1 kW=6.91007 kvar=1.399529824114652 Phases=2

New Load.load_p3umv28 conn=wye bus1=p3umv28.1.2.3 kV=12.47 Vminpu=0.8 Vmaxpu=1.2 model=1 kW=1123.0 kvar=228.03487589198684 Phases=3

New Load.load_p3ulv56808 conn=wye bus1=p3ulv56808.1.2 kV=0.2080002494301389 Vminpu=0.8 Vmaxpu=1.2 model=1 kW=3.58004 kvar=0.7306960987749602 Phases=2

New Load.load_p3ulv58372 conn=wye bus1=p3ulv58372.1.2 kV=0.2080002494301389 Vminpu=0.8 Vmaxpu=1.2 model=1 kW=13.9101 kvar=2.8318363426636766 Phases=2

New Load.load_p3ulv65228 conn=wye bus1=p3ulv51433.1.2 kV=0.2080002494301389 Vminpu=0.8 Vmaxpu=1.2 model=1 kW=7.01007 kvar=1.419783306700424 Phases=2

New Load.load_p3umv35 conn=wye bus1=p3umv35.1.2.3 kV=12.47 Vminpu=0.8 Vmaxpu=1.2 model=1 kW=1064.97 kvar=216.25138181539555 Phases=3

New Load.load_p3ulv75185 conn=wye bus1=p3ulv75185.1.2 kV=0.2080002494301389 Vminpu=0.8 Vmaxpu=1.2 model=1 kW=10.9001 kvar=2.207649855331729 Phases=2

New Load.load_p3ulv75975 conn=wye bus1=p3ulv75975.1.2.3 kV=0.48 Vminpu=0.8 Vmaxpu=1.2 model=1 kW=24.990200000000005 kvar=5.074476540975895 Phases=3

New Load.load_p3umv40 conn=wye bus1=p3umv40.1.2.3 kV=12.47 Vminpu=0.8 Vmaxpu=1.2 model=1 kW=815.148 kvar=165.52286109848734 Phases=3

New Load.load_p3ulv80586 conn=wye bus1=p3ulv80586.1.2 kV=0.2080002494301389 Vminpu=0.8 Vmaxpu=1.2 model=1 kW=6.34006 kvar=2.079373903751998 Phases=2

