Clear

New Circuit.feeder_p4udt20507-p4uhs15_1247x bus1=p4udt20507-p4uhs15_1247x pu=1.03 basekV=12.47 R1=1e-05 X1=1e-05 R0=1e-05 X0=1e-05

Redirect Transformers.dss
Redirect Loads.dss
Redirect LineCodes.dss
Redirect Lines.dss

Set Voltagebases=[0.48, 12.47]

Calcvoltagebases

Buscoords Buscoords.dss

Solve