New Line.l(r:p5uhs1_69-p5uts1_69)p5ud3 Units=km Length=1.7824900000000001 bus1=p5uhs1_69-p5uts1_69xx.1.2.3 bus2=p5uhs1_69-p5uts1_69x.1.2.3 switch=n enabled=y phases=3 Linecode=3P_OH_AL_ACSR_477kcmil_Hawk_69_0_3_3_3_3

New Line.l(r:p5uhs1_69-p5uts1_69)p5ud3p5ud3 Units=km Length=1.7824900000000001 bus1=p5uhs1_69-p5uts1_69x_px_p.1.2.3 bus2=p5uhs1_69-p5uts1_69x_p.1.2.3 switch=n enabled=y phases=3 Linecode=3P_OH_AL_ACSR_477kcmil_Hawk_69_0_3_3_3_3

New Line.l(r:p5uhs4_69-p5uts0_69)p5ud3 Units=km Length=1.09956 bus1=p5uhs4_69-p5uts0_69xx.1.2.3 bus2=p5uhs4_69-p5uts0_69x.1.2.3 switch=n enabled=y phases=3 Linecode=3P_OH_AL_ACSR_477kcmil_Hawk_69_0_3_3_3_3

New Line.l(r:p5uhs4_69-p5uts0_69)p5ud3p5ud3 Units=km Length=1.09956 bus1=p5uhs4_69-p5uts0_69x_px_p.1.2.3 bus2=p5uhs4_69-p5uts0_69x_p.1.2.3 switch=n enabled=y phases=3 Linecode=3P_OH_AL_ACSR_477kcmil_Hawk_69_0_3_3_3_3

New Line.l(r:p5uhs17_69-p5uts6_69)p5ud3p5ud23 Units=km Length=2.64089 bus1=p5uhs17_69-p5uts6_69xx.1.2.3 bus2=p5uhs17_69-p5uts6_69x.1.2.3 switch=n enabled=y phases=3 Linecode=3P_OH_AL_ACSR_477kcmil_Hawk_69_0_3_3_3_3

New Line.l(r:p5uhs17_69-p5uts6_69)p5ud3p5ud23p5ud13 Units=km Length=2.64089 bus1=p5uhs17_69-p5uts6_69x_px_p.1.2.3 bus2=p5uhs17_69-p5uts6_69x_p.1.2.3 switch=n enabled=y phases=3 Linecode=3P_OH_AL_ACSR_477kcmil_Hawk_69_0_3_3_3_3

New Line.l(r:p5uhs17_69-p5uts6_69)p5ud3p5ud23p5ud23 Units=km Length=2.64089 bus1=p5uhs17_69-p5uts6_69x_px_p.1.2.3 bus2=p5uhs17_69-p5uts6_69x_p.1.2.3 switch=n enabled=y phases=3 Linecode=3P_OH_AL_ACSR_477kcmil_Hawk_69_0_3_3_3_3

New Line.l(r:p5uhs17_69-p5uts6_69)p5ud3p5ud23p5ud33 Units=km Length=2.64089 bus1=p5uhs17_69-p5uts6_69x_px_p.1.2.3 bus2=p5uhs17_69-p5uts6_69x_p.1.2.3 switch=n enabled=y phases=3 Linecode=3P_OH_AL_ACSR_477kcmil_Hawk_69_0_3_3_3_3

New Line.l(r:p5uhs11_69-p5uts5_69) Units=km Length=8.49954 bus1=p5uhs11_69-p5uts5_69xx.1.2.3 bus2=p5uhs11_69-p5uts5_69x.1.2.3 switch=n enabled=y phases=3 Linecode=3P_OH_AL_ACSR_477kcmil_Hawk_69_0_3_3_3_3

New Line.l(r:p5uhs27_69-p5uhs28_69) Units=km Length=6.57391 bus1=p5uhs27_69-p5uhs28_69xx.1.2.3 bus2=p5uhs27_69-p5uhs28_69x.1.2.3 switch=n enabled=y phases=3 Linecode=3P_OH_AL_ACSR_477kcmil_Hawk_69_0_3_3_3_3

New Line.l(r:p5uhs11_69-p5uhs12_69) Units=km Length=5.94526 bus1=p5uhs11_69-p5uhs12_69x.1.2.3 bus2=p5uhs11_69-p5uhs12_69xx.1.2.3 switch=n enabled=y phases=3 Linecode=3P_OH_AL_ACSR_477kcmil_Hawk_69_0_3_3_3_3

New Line.l(r:p5uhs24_69-p5uts5_69) Units=km Length=4.630440000000001 bus1=p5uhs24_69-p5uts5_69xx.1.2.3 bus2=p5uhs24_69-p5uts5_69x.1.2.3 switch=n enabled=y phases=3 Linecode=3P_OH_AL_ACSR_477kcmil_Hawk_69_0_3_3_3_3

New Line.l(r:p5uhs10_69-p5uts4_69) Units=km Length=4.20664 bus1=p5uhs10_69-p5uts4_69xx.1.2.3 bus2=p5uhs10_69-p5uts4_69x.1.2.3 switch=n enabled=y phases=3 Linecode=3P_UG_AL_1000mcm_69_69_0_3_3_3_3

New Line.l(r:p5uhs18_69-p5uts4_69) Units=km Length=3.97372 bus1=p5uhs18_69-p5uts4_69xx.1.2.3 bus2=p5uhs18_69-p5uts4_69x.1.2.3 switch=n enabled=y phases=3 Linecode=3P_UG_AL_1000mcm_69_69_0_3_3_3_3

New Line.l(r:p5uhs14_69-p5uhs18_69) Units=km Length=3.6035700000000004 bus1=p5uhs14_69-p5uhs18_69xx.1.2.3 bus2=p5uhs14_69-p5uhs18_69x.1.2.3 switch=n enabled=y phases=3 Linecode=3P_UG_AL_1000mcm_69_69_0_3_3_3_3

New Line.l(r:p5uhs25_69-p5uts1_69) Units=km Length=3.57655 bus1=p5uhs25_69-p5uts1_69xx.1.2.3 bus2=p5uhs25_69-p5uts1_69x.1.2.3 switch=n enabled=y phases=3 Linecode=3P_OH_AL_ACSR_477kcmil_Hawk_69_0_3_3_3_3

New Line.l(r:p5uhs12_69-p5uhs16_69) Units=km Length=3.47579 bus1=p5uhs12_69-p5uhs16_69xx.1.2.3 bus2=p5uhs12_69-p5uhs16_69x.1.2.3 switch=n enabled=y phases=3 Linecode=3P_OH_AL_ACSR_477kcmil_Hawk_69_0_3_3_3_3

New Line.l(r:p5uhs13_69-p5uts4_69) Units=km Length=3.46903 bus1=p5uhs13_69-p5uts4_69xx.1.2.3 bus2=p5uhs13_69-p5uts4_69x.1.2.3 switch=n enabled=y phases=3 Linecode=3P_OH_AL_ACSR_477kcmil_Hawk_69_0_3_3_3_3

New Line.l(r:p5uhs19_69-p5uts0_69) Units=km Length=3.29082 bus1=p5uhs19_69-p5uts0_69xx.1.2.3 bus2=p5uhs19_69-p5uts0_69x.1.2.3 switch=n enabled=y phases=3 Linecode=3P_OH_AL_ACSR_477kcmil_Hawk_69_0_3_3_3_3

New Line.l(r:p5uhs23_69-p5uts3_69) Units=km Length=3.20167 bus1=p5uhs23_69-p5uts3_69xx.1.2.3 bus2=p5uhs23_69-p5uts3_69x.1.2.3 switch=n enabled=y phases=3 Linecode=3P_OH_AL_ACSR_477kcmil_Hawk_69_0_3_3_3_3

New Line.l(r:p5uhs7_69-p5uts2_69) Units=km Length=3.11417 bus1=p5uhs7_69-p5uts2_69xx.1.2.3 bus2=p5uhs7_69-p5uts2_69x.1.2.3 switch=n enabled=y phases=3 Linecode=3P_UG_AL_1000mcm_69_69_0_3_3_3_3

New Line.l(r:p5uhs26_69-p5uts0_69) Units=km Length=3.011 bus1=p5uhs26_69-p5uts0_69xx.1.2.3 bus2=p5uhs26_69-p5uts0_69x.1.2.3 switch=n enabled=y phases=3 Linecode=3P_OH_AL_ACSR_477kcmil_Hawk_69_0_3_3_3_3

New Line.l(r:p5uhs5_69-p5uts2_69) Units=km Length=2.85171 bus1=p5uhs5_69-p5uts2_69xx.1.2.3 bus2=p5uhs5_69-p5uts2_69x.1.2.3 switch=n enabled=y phases=3 Linecode=3P_UG_AL_1000mcm_69_69_0_3_3_3_3

New Line.l(r:p5uhs3_69-p5uhs7_69) Units=km Length=2.64443 bus1=p5uhs3_69-p5uhs7_69x.1.2.3 bus2=p5uhs3_69-p5uhs7_69xx.1.2.3 switch=n enabled=y phases=3 Linecode=3P_OH_AL_ACSR_477kcmil_Hawk_69_0_3_3_3_3

New Line.l(r:p5uhs16_69-p5uts1_69) Units=km Length=2.45252 bus1=p5uhs16_69-p5uts1_69xx.1.2.3 bus2=p5uhs16_69-p5uts1_69x.1.2.3 switch=n enabled=y phases=3 Linecode=3P_UG_AL_1000mcm_69_69_0_3_3_3_3

New Line.l(r:p5uhs22_69-p5uhs30_69) Units=km Length=2.4035 bus1=p5uhs22_69-p5uhs30_69x.1.2.3 bus2=p5uhs22_69-p5uhs30_69xx.1.2.3 switch=n enabled=y phases=3 Linecode=3P_UG_AL_1000mcm_69_69_0_3_3_3_3

New Line.l(r:p5uhs8_69-p5uts3_69) Units=km Length=2.3734500000000005 bus1=p5uhs8_69-p5uts3_69xx.1.2.3 bus2=p5uhs8_69-p5uts3_69x.1.2.3 switch=n enabled=y phases=3 Linecode=3P_OH_AL_ACSR_477kcmil_Hawk_69_0_3_3_3_3

New Line.l(r:p5uhs14_69-p5uhs17_69) Units=km Length=2.34997 bus1=p5uhs14_69-p5uhs17_69xx.1.2.3 bus2=p5uhs14_69-p5uhs17_69x.1.2.3 switch=n enabled=y phases=3 Linecode=3P_OH_AL_ACSR_477kcmil_Hawk_69_0_3_3_3_3

New Line.l(r:p5uhs13_69-p5uhs20_69) Units=km Length=2.24362 bus1=p5uhs13_69-p5uhs20_69x.1.2.3 bus2=p5uhs13_69-p5uhs20_69xx.1.2.3 switch=n enabled=y phases=3 Linecode=3P_OH_AL_ACSR_477kcmil_Hawk_69_0_3_3_3_3

New Line.l(r:p5uhs29_69-p5uhs8_69) Units=km Length=2.21431 bus1=p5uhs29_69-p5uhs8_69xx.1.2.3 bus2=p5uhs29_69-p5uhs8_69x.1.2.3 switch=n enabled=y phases=3 Linecode=3P_OH_AL_ACSR_477kcmil_Hawk_69_0_3_3_3_3

New Line.l(r:p5uhs0_69-p5uts0_69) Units=km Length=2.13747 bus1=p5uhs0_69-p5uts0_69xx.1.2.3 bus2=p5uhs0_69-p5uts0_69x.1.2.3 switch=n enabled=y phases=3 Linecode=3P_OH_AL_ACSR_477kcmil_Hawk_69_0_3_3_3_3

New Line.l(r:p5uhs21_69-p5uts6_69) Units=km Length=2.04347 bus1=p5uhs21_69-p5uts6_69xx.1.2.3 bus2=p5uhs21_69-p5uts6_69x.1.2.3 switch=n enabled=y phases=3 Linecode=3P_OH_AL_ACSR_477kcmil_Hawk_69_0_3_3_3_3

New Line.l(r:p5uhs28_69-p5uts4_69) Units=km Length=2.01394 bus1=p5uhs28_69-p5uts4_69xx.1.2.3 bus2=p5uhs28_69-p5uts4_69x.1.2.3 switch=n enabled=y phases=3 Linecode=3P_UG_AL_1000mcm_69_69_0_3_3_3_3

New Line.l(r:p5uhs19_69-p5uhs29_69) Units=km Length=1.97069 bus1=p5uhs19_69-p5uhs29_69x.1.2.3 bus2=p5uhs19_69-p5uhs29_69xx.1.2.3 switch=n enabled=y phases=3 Linecode=3P_OH_AL_ACSR_477kcmil_Hawk_69_0_3_3_3_3

New Line.l(r:p5uhs22_69-p5uts3_69) Units=km Length=1.93006 bus1=p5uhs22_69-p5uts3_69xx.1.2.3 bus2=p5uhs22_69-p5uts3_69x.1.2.3 switch=n enabled=y phases=3 Linecode=3P_OH_AL_ACSR_477kcmil_Hawk_69_0_3_3_3_3

New Line.l(r:p5uhs9_69-p5uts2_69) Units=km Length=1.86554 bus1=p5uhs9_69-p5uts2_69xx.1.2.3 bus2=p5uhs9_69-p5uts2_69x.1.2.3 switch=n enabled=y phases=3 Linecode=3P_OH_AL_ACSR_477kcmil_Hawk_69_0_3_3_3_3

New Line.l(r:p5uhs4_69-p5uhs6_69) Units=km Length=1.7694 bus1=p5uhs4_69-p5uhs6_69x.1.2.3 bus2=p5uhs4_69-p5uhs6_69xx.1.2.3 switch=n enabled=y phases=3 Linecode=3P_UG_AL_1000mcm_69_69_0_3_3_3_3

New Line.l(r:p5uhs10_69-p5uhs15_69) Units=km Length=1.46997 bus1=p5uhs10_69-p5uhs15_69x.1.2.3 bus2=p5uhs10_69-p5uhs15_69xx.1.2.3 switch=n enabled=y phases=3 Linecode=3P_UG_AL_1000mcm_69_69_0_3_3_3_3

New Line.l(r:p5uhs2_69-p5uts1_69) Units=km Length=1.28787 bus1=p5uhs2_69-p5uts1_69xx.1.2.3 bus2=p5uhs2_69-p5uts1_69x.1.2.3 switch=n enabled=y phases=3 Linecode=3P_UG_AL_1000mcm_69_69_0_3_3_3_3

New Line.l(r:p5uhs1_69-p5uhs3_69) Units=km Length=1.28784 bus1=p5uhs1_69-p5uhs3_69x.1.2.3 bus2=p5uhs1_69-p5uhs3_69xx.1.2.3 switch=n enabled=y phases=3 Linecode=3P_OH_AL_ACSR_477kcmil_Hawk_69_0_3_3_3_3

New Line.breaker(r:p5uts0_69-st_mat)p5u_150996 Units=km Length=0.001 bus1=st_mat.1.2.3 bus2=p5uts0_69-st_matxx.1.2.3 switch=y enabled=y phases=3 Linecode=breaker_3_3_3_3

New Line.breaker(r:p5uts0_69-st_mat)p5u_150997 Units=km Length=0.001 bus1=p5uts0_69-st_matx.1.2.3 bus2=p5uts0_69.1.2.3 switch=y enabled=y phases=3 Linecode=breaker_3_5_3_3_3

New Line.breaker(r:p5uts1_69-st_mat)p5u_150998 Units=km Length=0.001 bus1=st_mat.1.2.3 bus2=p5uts1_69-st_matxx.1.2.3 switch=y enabled=y phases=3 Linecode=breaker_3_3_3_3

New Line.breaker(r:p5uts1_69-st_mat)p5u_150999 Units=km Length=0.001 bus1=p5uts1_69-st_matx.1.2.3 bus2=p5uts1_69.1.2.3 switch=y enabled=y phases=3 Linecode=breaker_3_3_3_3

New Line.breaker(r:p5uts2_69-st_mat)p5u_151000 Units=km Length=0.001 bus1=st_mat.1.2.3 bus2=p5uts2_69-st_matxx.1.2.3 switch=y enabled=y phases=3 Linecode=breaker_3_5_3_3_3

New Line.breaker(r:p5uts2_69-st_mat)p5u_151001 Units=km Length=0.001 bus1=p5uts2_69-st_matx.1.2.3 bus2=p5uts2_69.1.2.3 switch=y enabled=y phases=3 Linecode=breaker_3_5_3_3_3_3

New Line.breaker(r:p5uts3_69-st_mat)p5u_151002 Units=km Length=0.001 bus1=st_mat.1.2.3 bus2=p5uts3_69-st_matxx.1.2.3 switch=y enabled=y phases=3 Linecode=breaker_3_3_3_3

New Line.breaker(r:p5uts3_69-st_mat)p5u_151003 Units=km Length=0.001 bus1=p5uts3_69-st_matx.1.2.3 bus2=p5uts3_69.1.2.3 switch=y enabled=y phases=3 Linecode=breaker_3_5_3_3_3_2_3

New Line.breaker(r:p5uts4_69-st_mat)p5u_151004 Units=km Length=0.001 bus1=st_mat.1.2.3 bus2=p5uts4_69-st_matxx.1.2.3 switch=y enabled=y phases=3 Linecode=breaker_3_3_3_3

New Line.breaker(r:p5uts4_69-st_mat)p5u_151005 Units=km Length=0.001 bus1=p5uts4_69-st_matx.1.2.3 bus2=p5uts4_69.1.2.3 switch=y enabled=y phases=3 Linecode=breaker_3_5_3_3_3_3

New Line.breaker(r:p5uts5_69-st_mat)p5u_151006 Units=km Length=0.001 bus1=st_mat.1.2.3 bus2=p5uts5_69-st_matxx.1.2.3 switch=y enabled=y phases=3 Linecode=breaker_3_3_3_3

New Line.breaker(r:p5uts5_69-st_mat)p5u_151007 Units=km Length=0.001 bus1=p5uts5_69-st_matx.1.2.3 bus2=p5uts5_69.1.2.3 switch=y enabled=y phases=3 Linecode=breaker_3_5_3_3_3_2_3_2

New Line.breaker(r:p5uts6_69-st_mat)p5u_151008 Units=km Length=0.001 bus1=st_mat.1.2.3 bus2=p5uts6_69-st_matxx.1.2.3 switch=y enabled=y phases=3 Linecode=breaker_3_5_3_3_3

New Line.breaker(r:p5uts6_69-st_mat)p5u_151009 Units=km Length=0.001 bus1=p5uts6_69-st_matx.1.2.3 bus2=p5uts6_69.1.2.3 switch=y enabled=y phases=3 Linecode=breaker_3_3_3_3

New Line.breaker(r:p5uhs1_69-p5uts1_69)p5u_151020p5ud3 Units=km Length=0.001 bus1=p5uts1_69.1.2.3 bus2=p5uhs1_69-p5uts1_69xx.1.2.3 switch=y enabled=y phases=3 Linecode=breaker_3_3_3_3

New Line.breaker(r:p5uhs1_69-p5uts1_69)p5u_151021p5ud3 Units=km Length=0.001 bus1=p5uhs1_69-p5uts1_69x.1.2.3 bus2=p5uhs1_69.1.2.3 switch=y enabled=y phases=3 Linecode=breaker_3_5_3_3_3_2_3_2

New Line.breaker(r:p5uhs1_69-p5uts1_69)p5u_151020p5ud3p5ud3 Units=km Length=0.001 bus1=p5uts1_69.1.2.3 bus2=p5uhs1_69-p5uts1_69x_px_p.1.2.3 switch=y enabled=y phases=3 Linecode=breaker_3_3_3_3

New Line.breaker(r:p5uhs1_69-p5uts1_69)p5u_151021p5ud3p5ud3 Units=km Length=0.001 bus1=p5uhs1_69-p5uts1_69x_p.1.2.3 bus2=p5uhs1_69.1.2.3 switch=y enabled=y phases=3 Linecode=breaker_3_5_3_3_3_2_3_2

New Line.breaker(r:p5uhs4_69-p5uts0_69)p5u_151016p5ud3 Units=km Length=0.001 bus1=p5uts0_69.1.2.3 bus2=p5uhs4_69-p5uts0_69xx.1.2.3 switch=y enabled=y phases=3 Linecode=breaker_3_5_3_3_3

New Line.breaker(r:p5uhs4_69-p5uts0_69)p5u_151017p5ud3 Units=km Length=0.001 bus1=p5uhs4_69-p5uts0_69x.1.2.3 bus2=p5uhs4_69.1.2.3 switch=y enabled=y phases=3 Linecode=breaker_3_5_3_3_3

New Line.breaker(r:p5uhs4_69-p5uts0_69)p5u_151016p5ud3p5ud3 Units=km Length=0.001 bus1=p5uts0_69.1.2.3 bus2=p5uhs4_69-p5uts0_69x_px_p.1.2.3 switch=y enabled=y phases=3 Linecode=breaker_3_3_3_3

New Line.breaker(r:p5uhs4_69-p5uts0_69)p5u_151017p5ud3p5ud3 Units=km Length=0.001 bus1=p5uhs4_69-p5uts0_69x_p.1.2.3 bus2=p5uhs4_69.1.2.3 switch=y enabled=y phases=3 Linecode=breaker_3_5_3_3_3

New Line.breaker(r:p5uhs17_69-p5uts6_69)p5u_151056p5ud3p5ud23 Units=km Length=0.001 bus1=p5uts6_69.1.2.3 bus2=p5uhs17_69-p5uts6_69xx.1.2.3 switch=y enabled=y phases=3 Linecode=breaker_3_3_3_3

New Line.breaker(r:p5uhs17_69-p5uts6_69)p5u_151057p5ud3p5ud23 Units=km Length=0.001 bus1=p5uhs17_69-p5uts6_69x.1.2.3 bus2=p5uhs17_69.1.2.3 switch=y enabled=y phases=3 Linecode=breaker_3_5_3_3_3_2_3_2

New Line.breaker(r:p5uhs17_69-p5uts6_69)p5u_151056p5ud3p5ud23p5ud13 Units=km Length=0.001 bus1=p5uts6_69.1.2.3 bus2=p5uhs17_69-p5uts6_69x_px_p.1.2.3 switch=y enabled=y phases=3 Linecode=breaker_3_3_3_3

New Line.breaker(r:p5uhs17_69-p5uts6_69)p5u_151057p5ud3p5ud23p5ud13 Units=km Length=0.001 bus1=p5uhs17_69-p5uts6_69x_p.1.2.3 bus2=p5uhs17_69.1.2.3 switch=y enabled=y phases=3 Linecode=breaker_3_3_3_3

New Line.breaker(r:p5uhs17_69-p5uts6_69)p5u_151056p5ud3p5ud23p5ud23 Units=km Length=0.001 bus1=p5uts6_69.1.2.3 bus2=p5uhs17_69-p5uts6_69x_px_p.1.2.3 switch=y enabled=y phases=3 Linecode=breaker_3_5_3_3_3_2_3_2

New Line.breaker(r:p5uhs17_69-p5uts6_69)p5u_151057p5ud3p5ud23p5ud23 Units=km Length=0.001 bus1=p5uhs17_69-p5uts6_69x_p.1.2.3 bus2=p5uhs17_69.1.2.3 switch=y enabled=y phases=3 Linecode=breaker_3_3_3_3

New Line.breaker(r:p5uhs17_69-p5uts6_69)p5u_151056p5ud3p5ud23p5ud33 Units=km Length=0.001 bus1=p5uts6_69.1.2.3 bus2=p5uhs17_69-p5uts6_69x_px_p.1.2.3 switch=y enabled=y phases=3 Linecode=breaker_3_3_3_3

New Line.breaker(r:p5uhs17_69-p5uts6_69)p5u_151057p5ud3p5ud23p5ud33 Units=km Length=0.001 bus1=p5uhs17_69-p5uts6_69x_p.1.2.3 bus2=p5uhs17_69.1.2.3 switch=y enabled=y phases=3 Linecode=breaker_3_3_3_3

New Line.breaker(r:p5uhs11_69-p5uts5_69)p5u_151092 Units=km Length=0.001 bus1=p5uts5_69.1.2.3 bus2=p5uhs11_69-p5uts5_69xx.1.2.3 switch=y enabled=y phases=3 Linecode=breaker_3_3_3_3

New Line.breaker(r:p5uhs11_69-p5uts5_69)p5u_151093 Units=km Length=0.001 bus1=p5uhs11_69-p5uts5_69x.1.2.3 bus2=p5uhs11_69.1.2.3 switch=y enabled=y phases=3 Linecode=breaker_3_5_3_3_3_2_3_2

New Line.breaker(r:p5uhs27_69-p5uhs28_69)p5u_151094 Units=km Length=0.001 bus1=p5uhs28_69.1.2.3 bus2=p5uhs27_69-p5uhs28_69xx.1.2.3 switch=y enabled=y phases=3 Linecode=breaker_3_5_3_3_3_2_3_2

New Line.breaker(r:p5uhs27_69-p5uhs28_69)p5u_151095 Units=km Length=0.001 bus1=p5uhs27_69-p5uhs28_69x.1.2.3 bus2=p5uhs27_69.1.2.3 switch=y enabled=y phases=3 Linecode=breaker_3_5_3_3_3_2_3_2

New Line.breaker(r:p5uhs11_69-p5uhs12_69)p5u_151096 Units=km Length=0.001 bus1=p5uhs11_69.1.2.3 bus2=p5uhs11_69-p5uhs12_69x.1.2.3 switch=y enabled=y phases=3 Linecode=breaker_3_5_3_3_3_2_3_2

New Line.breaker(r:p5uhs11_69-p5uhs12_69)p5u_151097 Units=km Length=0.001 bus1=p5uhs11_69-p5uhs12_69xx.1.2.3 bus2=p5uhs12_69.1.2.3 switch=y enabled=y phases=3 Linecode=breaker_3_5_3_3_3_2_3_2

New Line.breaker(r:p5uhs24_69-p5uts5_69)p5u_151098 Units=km Length=0.001 bus1=p5uts5_69.1.2.3 bus2=p5uhs24_69-p5uts5_69xx.1.2.3 switch=y enabled=y phases=3 Linecode=breaker_3_3_3_3

New Line.breaker(r:p5uhs24_69-p5uts5_69)p5u_151099 Units=km Length=0.001 bus1=p5uhs24_69-p5uts5_69x.1.2.3 bus2=p5uhs24_69.1.2.3 switch=y enabled=y phases=3 Linecode=breaker_3_5_3_3_3_2_3_2

New Line.breaker(r:p5uhs10_69-p5uts4_69)p5u_151100 Units=km Length=0.001 bus1=p5uts4_69.1.2.3 bus2=p5uhs10_69-p5uts4_69xx.1.2.3 switch=y enabled=y phases=3 Linecode=breaker_3_5_3_3_3_3

New Line.breaker(r:p5uhs10_69-p5uts4_69)p5u_151101 Units=km Length=0.001 bus1=p5uhs10_69-p5uts4_69x.1.2.3 bus2=p5uhs10_69.1.2.3 switch=y enabled=y phases=3 Linecode=breaker_3_5_3_3_3_2_3_2

New Line.breaker(r:p5uhs18_69-p5uts4_69)p5u_151102 Units=km Length=0.001 bus1=p5uts4_69.1.2.3 bus2=p5uhs18_69-p5uts4_69xx.1.2.3 switch=y enabled=y phases=3 Linecode=breaker_3_5_3_3_3_3

New Line.breaker(r:p5uhs18_69-p5uts4_69)p5u_151103 Units=km Length=0.001 bus1=p5uhs18_69-p5uts4_69x.1.2.3 bus2=p5uhs18_69.1.2.3 switch=y enabled=y phases=3 Linecode=breaker_3_5_3_3_3_3

New Line.breaker(r:p5uhs14_69-p5uhs18_69)p5u_151104 Units=km Length=0.001 bus1=p5uhs18_69.1.2.3 bus2=p5uhs14_69-p5uhs18_69xx.1.2.3 switch=y enabled=y phases=3 Linecode=breaker_3_5_3_3_3_3

New Line.breaker(r:p5uhs14_69-p5uhs18_69)p5u_151105 Units=km Length=0.001 bus1=p5uhs14_69-p5uhs18_69x.1.2.3 bus2=p5uhs14_69.1.2.3 switch=y enabled=y phases=3 Linecode=breaker_3_5_3_3_3

New Line.breaker(r:p5uhs25_69-p5uts1_69)p5u_151106 Units=km Length=0.001 bus1=p5uts1_69.1.2.3 bus2=p5uhs25_69-p5uts1_69xx.1.2.3 switch=y enabled=y phases=3 Linecode=breaker_3_5_3_3_3_2_3_2

New Line.breaker(r:p5uhs25_69-p5uts1_69)p5u_151107 Units=km Length=0.001 bus1=p5uhs25_69-p5uts1_69x.1.2.3 bus2=p5uhs25_69.1.2.3 switch=y enabled=y phases=3 Linecode=breaker_3_5_3_3_3_2_3_2

New Line.breaker(r:p5uhs12_69-p5uhs16_69)p5u_151108 Units=km Length=0.001 bus1=p5uhs16_69.1.2.3 bus2=p5uhs12_69-p5uhs16_69xx.1.2.3 switch=y enabled=y phases=3 Linecode=breaker_3_5_3_3_3_3

New Line.breaker(r:p5uhs12_69-p5uhs16_69)p5u_151109 Units=km Length=0.001 bus1=p5uhs12_69-p5uhs16_69x.1.2.3 bus2=p5uhs12_69.1.2.3 switch=y enabled=y phases=3 Linecode=breaker_3_5_3_3_3_2_3_2

New Line.breaker(r:p5uhs13_69-p5uts4_69)p5u_151110 Units=km Length=0.001 bus1=p5uts4_69.1.2.3 bus2=p5uhs13_69-p5uts4_69xx.1.2.3 switch=y enabled=y phases=3 Linecode=breaker_3_3_3_3

New Line.breaker(r:p5uhs13_69-p5uts4_69)p5u_151111 Units=km Length=0.001 bus1=p5uhs13_69-p5uts4_69x.1.2.3 bus2=p5uhs13_69.1.2.3 switch=y enabled=y phases=3 Linecode=breaker_3_3_3_3

New Line.breaker(r:p5uhs19_69-p5uts0_69)p5u_151112 Units=km Length=0.001 bus1=p5uts0_69.1.2.3 bus2=p5uhs19_69-p5uts0_69xx.1.2.3 switch=y enabled=y phases=3 Linecode=breaker_3_3_3_3

New Line.breaker(r:p5uhs19_69-p5uts0_69)p5u_151113 Units=km Length=0.001 bus1=p5uhs19_69-p5uts0_69x.1.2.3 bus2=p5uhs19_69.1.2.3 switch=y enabled=y phases=3 Linecode=breaker_3_5_3_3_3_2_3_2

New Line.breaker(r:p5uhs23_69-p5uts3_69)p5u_151114 Units=km Length=0.001 bus1=p5uts3_69.1.2.3 bus2=p5uhs23_69-p5uts3_69xx.1.2.3 switch=y enabled=y phases=3 Linecode=breaker_3_3_3_3

New Line.breaker(r:p5uhs23_69-p5uts3_69)p5u_151115 Units=km Length=0.001 bus1=p5uhs23_69-p5uts3_69x.1.2.3 bus2=p5uhs23_69.1.2.3 switch=y enabled=y phases=3 Linecode=breaker_3_3_3_3

New Line.breaker(r:p5uhs7_69-p5uts2_69)p5u_151116 Units=km Length=0.001 bus1=p5uts2_69.1.2.3 bus2=p5uhs7_69-p5uts2_69xx.1.2.3 switch=y enabled=y phases=3 Linecode=breaker_3_5_3_3_3_2_3_2

New Line.breaker(r:p5uhs7_69-p5uts2_69)p5u_151117 Units=km Length=0.001 bus1=p5uhs7_69-p5uts2_69x.1.2.3 bus2=p5uhs7_69.1.2.3 switch=y enabled=y phases=3 Linecode=breaker_3_5_3_3_3_2_3_2

New Line.breaker(r:p5uhs26_69-p5uts0_69)p5u_151118 Units=km Length=0.001 bus1=p5uts0_69.1.2.3 bus2=p5uhs26_69-p5uts0_69xx.1.2.3 switch=y enabled=y phases=3 Linecode=breaker_3_5_3_3_3

New Line.breaker(r:p5uhs26_69-p5uts0_69)p5u_151119 Units=km Length=0.001 bus1=p5uhs26_69-p5uts0_69x.1.2.3 bus2=p5uhs26_69.1.2.3 switch=y enabled=y phases=3 Linecode=breaker_3_5_3_3_3

New Line.breaker(r:p5uhs5_69-p5uts2_69)p5u_151120 Units=km Length=0.001 bus1=p5uts2_69.1.2.3 bus2=p5uhs5_69-p5uts2_69xx.1.2.3 switch=y enabled=y phases=3 Linecode=breaker_3_5_3_3_3_3

New Line.breaker(r:p5uhs5_69-p5uts2_69)p5u_151121 Units=km Length=0.001 bus1=p5uhs5_69-p5uts2_69x.1.2.3 bus2=p5uhs5_69.1.2.3 switch=y enabled=y phases=3 Linecode=breaker_3_5_3_3_3

New Line.breaker(r:p5uhs3_69-p5uhs7_69)p5u_151122 Units=km Length=0.001 bus1=p5uhs3_69.1.2.3 bus2=p5uhs3_69-p5uhs7_69x.1.2.3 switch=y enabled=y phases=3 Linecode=breaker_3_5_3_3_3_2_3_2

New Line.breaker(r:p5uhs3_69-p5uhs7_69)p5u_151123 Units=km Length=0.001 bus1=p5uhs3_69-p5uhs7_69xx.1.2.3 bus2=p5uhs7_69.1.2.3 switch=y enabled=y phases=3 Linecode=breaker_3_5_3_3_3_2_3_2

New Line.breaker(r:p5uhs16_69-p5uts1_69)p5u_151124 Units=km Length=0.001 bus1=p5uts1_69.1.2.3 bus2=p5uhs16_69-p5uts1_69xx.1.2.3 switch=y enabled=y phases=3 Linecode=breaker_3_5_3_3_3_3

New Line.breaker(r:p5uhs16_69-p5uts1_69)p5u_151125 Units=km Length=0.001 bus1=p5uhs16_69-p5uts1_69x.1.2.3 bus2=p5uhs16_69.1.2.3 switch=y enabled=y phases=3 Linecode=breaker_3_5_3_3_3_2_3_2

New Line.breaker(r:p5uhs22_69-p5uhs30_69)p5u_151126 Units=km Length=0.001 bus1=p5uhs22_69.1.2.3 bus2=p5uhs22_69-p5uhs30_69x.1.2.3 switch=y enabled=y phases=3 Linecode=breaker_3_5_3_3_3_3

New Line.breaker(r:p5uhs22_69-p5uhs30_69)p5u_151127 Units=km Length=0.001 bus1=p5uhs22_69-p5uhs30_69xx.1.2.3 bus2=p5uhs30_69.1.2.3 switch=y enabled=y phases=3 Linecode=breaker_3_5_3_3_3_3

New Line.breaker(r:p5uhs8_69-p5uts3_69)p5u_151128 Units=km Length=0.001 bus1=p5uts3_69.1.2.3 bus2=p5uhs8_69-p5uts3_69xx.1.2.3 switch=y enabled=y phases=3 Linecode=breaker_3_3_3_3

New Line.breaker(r:p5uhs8_69-p5uts3_69)p5u_151129 Units=km Length=0.001 bus1=p5uhs8_69-p5uts3_69x.1.2.3 bus2=p5uhs8_69.1.2.3 switch=y enabled=y phases=3 Linecode=breaker_3_3_3_3

New Line.breaker(r:p5uhs14_69-p5uhs17_69)p5u_151130 Units=km Length=0.001 bus1=p5uhs17_69.1.2.3 bus2=p5uhs14_69-p5uhs17_69xx.1.2.3 switch=y enabled=y phases=3 Linecode=breaker_3_3_3_3

New Line.breaker(r:p5uhs14_69-p5uhs17_69)p5u_151131 Units=km Length=0.001 bus1=p5uhs14_69-p5uhs17_69x.1.2.3 bus2=p5uhs14_69.1.2.3 switch=y enabled=y phases=3 Linecode=breaker_3_5_3_3_3_2_3_2

New Line.breaker(r:p5uhs13_69-p5uhs20_69)p5u_151132 Units=km Length=0.001 bus1=p5uhs13_69.1.2.3 bus2=p5uhs13_69-p5uhs20_69x.1.2.3 switch=y enabled=y phases=3 Linecode=breaker_3_3_3_3

New Line.breaker(r:p5uhs13_69-p5uhs20_69)p5u_151133 Units=km Length=0.001 bus1=p5uhs13_69-p5uhs20_69xx.1.2.3 bus2=p5uhs20_69.1.2.3 switch=y enabled=y phases=3 Linecode=breaker_3_5_3_3_3_2_3_2

New Line.breaker(r:p5uhs29_69-p5uhs8_69)p5u_151134 Units=km Length=0.001 bus1=p5uhs8_69.1.2.3 bus2=p5uhs29_69-p5uhs8_69xx.1.2.3 switch=y enabled=y phases=3 Linecode=breaker_3_3_3_3

New Line.breaker(r:p5uhs29_69-p5uhs8_69)p5u_151135 Units=km Length=0.001 bus1=p5uhs29_69-p5uhs8_69x.1.2.3 bus2=p5uhs29_69.1.2.3 switch=y enabled=y phases=3 Linecode=breaker_3_3_3_3

New Line.breaker(r:p5uhs0_69-p5uts0_69)p5u_151136 Units=km Length=0.001 bus1=p5uts0_69.1.2.3 bus2=p5uhs0_69-p5uts0_69xx.1.2.3 switch=y enabled=y phases=3 Linecode=breaker_3_3_3_3

New Line.breaker(r:p5uhs0_69-p5uts0_69)p5u_151137 Units=km Length=0.001 bus1=p5uhs0_69-p5uts0_69x.1.2.3 bus2=p5uhs0_69.1.2.3 switch=y enabled=y phases=3 Linecode=breaker_3_5_3_3_3_2_3_2

New Line.breaker(r:p5uhs21_69-p5uts6_69)p5u_151138 Units=km Length=0.001 bus1=p5uts6_69.1.2.3 bus2=p5uhs21_69-p5uts6_69xx.1.2.3 switch=y enabled=y phases=3 Linecode=breaker_3_3_3_3

New Line.breaker(r:p5uhs21_69-p5uts6_69)p5u_151139 Units=km Length=0.001 bus1=p5uhs21_69-p5uts6_69x.1.2.3 bus2=p5uhs21_69.1.2.3 switch=y enabled=y phases=3 Linecode=breaker_3_5_3_3_3

New Line.breaker(r:p5uhs28_69-p5uts4_69)p5u_151140 Units=km Length=0.001 bus1=p5uts4_69.1.2.3 bus2=p5uhs28_69-p5uts4_69xx.1.2.3 switch=y enabled=y phases=3 Linecode=breaker_3_5_3_3_3_3

New Line.breaker(r:p5uhs28_69-p5uts4_69)p5u_151141 Units=km Length=0.001 bus1=p5uhs28_69-p5uts4_69x.1.2.3 bus2=p5uhs28_69.1.2.3 switch=y enabled=y phases=3 Linecode=breaker_3_5_3_3_3_2_3_2

New Line.breaker(r:p5uhs19_69-p5uhs29_69)p5u_151142 Units=km Length=0.001 bus1=p5uhs19_69.1.2.3 bus2=p5uhs19_69-p5uhs29_69x.1.2.3 switch=y enabled=y phases=3 Linecode=breaker_3_5_3_3_3_2_3_2

New Line.breaker(r:p5uhs19_69-p5uhs29_69)p5u_151143 Units=km Length=0.001 bus1=p5uhs19_69-p5uhs29_69xx.1.2.3 bus2=p5uhs29_69.1.2.3 switch=y enabled=y phases=3 Linecode=breaker_3_5_3_3_3_2_3_2

New Line.breaker(r:p5uhs22_69-p5uts3_69)p5u_151144 Units=km Length=0.001 bus1=p5uts3_69.1.2.3 bus2=p5uhs22_69-p5uts3_69xx.1.2.3 switch=y enabled=y phases=3 Linecode=breaker_3_3_3_3

New Line.breaker(r:p5uhs22_69-p5uts3_69)p5u_151145 Units=km Length=0.001 bus1=p5uhs22_69-p5uts3_69x.1.2.3 bus2=p5uhs22_69.1.2.3 switch=y enabled=y phases=3 Linecode=breaker_3_5_3_3_3_2_3_2

New Line.breaker(r:p5uhs9_69-p5uts2_69)p5u_151146 Units=km Length=0.001 bus1=p5uts2_69.1.2.3 bus2=p5uhs9_69-p5uts2_69xx.1.2.3 switch=y enabled=y phases=3 Linecode=breaker_3_3_3_3

New Line.breaker(r:p5uhs9_69-p5uts2_69)p5u_151147 Units=km Length=0.001 bus1=p5uhs9_69-p5uts2_69x.1.2.3 bus2=p5uhs9_69.1.2.3 switch=y enabled=y phases=3 Linecode=breaker_3_5_3_3_3

New Line.breaker(r:p5uhs4_69-p5uhs6_69)p5u_151148 Units=km Length=0.001 bus1=p5uhs4_69.1.2.3 bus2=p5uhs4_69-p5uhs6_69x.1.2.3 switch=y enabled=y phases=3 Linecode=breaker_3_5_3_3_3

New Line.breaker(r:p5uhs4_69-p5uhs6_69)p5u_151149 Units=km Length=0.001 bus1=p5uhs4_69-p5uhs6_69xx.1.2.3 bus2=p5uhs6_69.1.2.3 switch=y enabled=y phases=3 Linecode=breaker_3_5_3_3_3

New Line.breaker(r:p5uhs10_69-p5uhs15_69)p5u_151150 Units=km Length=0.001 bus1=p5uhs10_69.1.2.3 bus2=p5uhs10_69-p5uhs15_69x.1.2.3 switch=y enabled=y phases=3 Linecode=breaker_3_5_3_3_3_2_3_2

New Line.breaker(r:p5uhs10_69-p5uhs15_69)p5u_151151 Units=km Length=0.001 bus1=p5uhs10_69-p5uhs15_69xx.1.2.3 bus2=p5uhs15_69.1.2.3 switch=y enabled=y phases=3 Linecode=breaker_3_5_3_3_3_3

New Line.breaker(r:p5uhs2_69-p5uts1_69)p5u_151152 Units=km Length=0.001 bus1=p5uts1_69.1.2.3 bus2=p5uhs2_69-p5uts1_69xx.1.2.3 switch=y enabled=y phases=3 Linecode=breaker_3_5_3_3_3_3

New Line.breaker(r:p5uhs2_69-p5uts1_69)p5u_151153 Units=km Length=0.001 bus1=p5uhs2_69-p5uts1_69x.1.2.3 bus2=p5uhs2_69.1.2.3 switch=y enabled=y phases=3 Linecode=breaker_3_5_3_3_3_3

New Line.breaker(r:p5uhs1_69-p5uhs3_69)p5u_151154 Units=km Length=0.001 bus1=p5uhs1_69.1.2.3 bus2=p5uhs1_69-p5uhs3_69x.1.2.3 switch=y enabled=y phases=3 Linecode=breaker_3_5_3_3_3_2_3_2

New Line.breaker(r:p5uhs1_69-p5uhs3_69)p5u_151155 Units=km Length=0.001 bus1=p5uhs1_69-p5uhs3_69xx.1.2.3 bus2=p5uhs3_69.1.2.3 switch=y enabled=y phases=3 Linecode=breaker_3_5_3_3_3_2_3_2

