New Load.load_p2ulv220 conn=wye bus1=p2ulv220.1.2 kV=0.2080002494301389 Vminpu=0.8 Vmaxpu=1.2 model=1 kW=4.98005 kvar=1.011242282890373 Phases=2

New Load.load_p2ulv932 conn=wye bus1=p2ulv932.1.2 kV=0.2080002494301389 Vminpu=0.8 Vmaxpu=1.2 model=1 kW=3.79004 kvar=0.7696004461493017 Phases=2

New Load.load_p2ulv2391 conn=wye bus1=p2ulv2391.1.2 kV=0.2080002494301389 Vminpu=0.8 Vmaxpu=1.2 model=1 kW=3.54004 kvar=1.1597819482361709 Phases=2

New Load.load_p2ulv2392 conn=wye bus1=p2ulv2392.1.2 kV=0.2080002494301389 Vminpu=0.8 Vmaxpu=1.2 model=1 kW=7.490070000000001 kvar=1.5209235822549367 Phases=2

New Load.load_p2ulv2651 conn=wye bus1=p2ulv2651.1.2 kV=0.2080002494301389 Vminpu=0.8 Vmaxpu=1.2 model=1 kW=5.39005 kvar=1.088842888327837 Phases=2

New Load.load_p2ulv3605 conn=wye bus1=p2ulv3605.1.2 kV=0.2080002494301389 Vminpu=0.8 Vmaxpu=1.2 model=1 kW=9.9201 kvar=2.009165725991164 Phases=2

New Load.load_p2ulv4094 conn=wye bus1=p2ulv4094.1.2 kV=0.2080002494301389 Vminpu=0.8 Vmaxpu=1.2 model=1 kW=5.25005 kvar=1.0688120423865706 Phases=2

New Load.load_p2ulv4586 conn=wye bus1=p2ulv4586.1.2 kV=0.2080002494301389 Vminpu=0.8 Vmaxpu=1.2 model=1 kW=1.71002 kvar=0.5602338750756536 Phases=2

New Load.load_p2ulv5772 conn=wye bus1=p2ulv5772.1.2 kV=0.2080002494301389 Vminpu=0.8 Vmaxpu=1.2 model=1 kW=18.5602 kvar=3.768809353099246 Phases=2

New Load.load_p2ulv6023 conn=wye bus1=p2ulv6023.1.2 kV=0.2080002494301389 Vminpu=0.8 Vmaxpu=1.2 model=1 kW=5.32005 kvar=1.0802822275059345 Phases=2

New Load.load_p2ulv6525 conn=wye bus1=p2ulv6525.1.2 kV=0.2080002494301389 Vminpu=0.8 Vmaxpu=1.2 model=1 kW=5.02005 kvar=1.0193646293157332 Phases=2

New Load.load_p2ulv6526 conn=wye bus1=p2ulv6526.1.2.3 kV=0.48 Vminpu=0.8 Vmaxpu=1.2 model=1 kW=23.260199999999998 kvar=7.637000877588448 Phases=3

New Load.load_p2ulv7973 conn=wye bus1=p2ulv7973.1.2 kV=0.2080002494301389 Vminpu=0.8 Vmaxpu=1.2 model=1 kW=7.19007 kvar=1.4600059840647355 Phases=2

New Load.load_p2ulv8198 conn=wye bus1=p2ulv8198.1.2 kV=0.2080002494301389 Vminpu=0.8 Vmaxpu=1.2 model=1 kW=1.84002 kvar=0.6099930284456714 Phases=2

New Load.load_p2ulv8199 conn=wye bus1=p2ulv8199.1.2.3 kV=0.48 Vminpu=0.8 Vmaxpu=1.2 model=1 kW=38.0804 kvar=12.51642219885318 Phases=3

New Load.load_p2ulv8200 conn=wye bus1=p2ulv8200.1.2 kV=0.2080002494301389 Vminpu=0.8 Vmaxpu=1.2 model=1 kW=5.96006 kvar=1.2102418008983036 Phases=2

New Load.load_p2ulv8201 conn=wye bus1=p2ulv8201.1.2 kV=0.2080002494301389 Vminpu=0.8 Vmaxpu=1.2 model=1 kW=3.43003 kvar=0.70007864149034 Phases=2

New Load.load_p2ulv8202 conn=wye bus1=p2ulv8202.1.2 kV=0.2080002494301389 Vminpu=0.8 Vmaxpu=1.2 model=1 kW=9.31009 kvar=1.890494405782037 Phases=2

New Load.load_p2ulv9103 conn=wye bus1=p2ulv9103.1.2 kV=0.2080002494301389 Vminpu=0.8 Vmaxpu=1.2 model=1 kW=5.130050000000001 kvar=1.0390137833913942 Phases=2

New Load.load_p2ulv9104 conn=wye bus1=p2ulv9104.1.2 kV=0.2080002494301389 Vminpu=0.8 Vmaxpu=1.2 model=1 kW=5.00005 kvar=1.0205240803677447 Phases=2

New Load.load_p2ulv9565 conn=wye bus1=p2ulv9565.1.2 kV=0.2080002494301389 Vminpu=0.8 Vmaxpu=1.2 model=1 kW=3.65004 kvar=0.7392602157737106 Phases=2

New Load.load_p2ulv9566 conn=wye bus1=p2ulv9566.1.2 kV=0.2080002494301389 Vminpu=0.8 Vmaxpu=1.2 model=1 kW=2.62003 kvar=0.8602321308203738 Phases=2

New Load.load_p2ulv10267 conn=wye bus1=p2ulv10267.1.2 kV=0.2080002494301389 Vminpu=0.8 Vmaxpu=1.2 model=1 kW=6.350060000000001 kvar=1.2894346785455655 Phases=2

New Load.load_p2ulv10269 conn=wye bus1=p2ulv10269.1.2 kV=0.2080002494301389 Vminpu=0.8 Vmaxpu=1.2 model=1 kW=0.780008 kvar=0.25995688933457994 Phases=2

New Load.load_p2ulv10766 conn=wye bus1=p2ulv10766.1.2.3 kV=0.48 Vminpu=0.8 Vmaxpu=1.2 model=1 kW=33.5003 kvar=6.802526048837335 Phases=3

New Load.load_p2ulv11233 conn=wye bus1=p2ulv11233.1.2 kV=0.2080002494301389 Vminpu=0.8 Vmaxpu=1.2 model=1 kW=5.600060000000001 kvar=1.8406507100479443 Phases=2

New Load.load_p2ulv11477 conn=wye bus1=p2ulv11477.1.2 kV=0.2080002494301389 Vminpu=0.8 Vmaxpu=1.2 model=1 kW=2.47002 kvar=0.8101019753354873 Phases=2

New Load.load_p2ulv12169 conn=wye bus1=p2ulv12169.1.2 kV=0.2080002494301389 Vminpu=0.8 Vmaxpu=1.2 model=1 kW=9.21009 kvar=3.030477186610004 Phases=2

New Load.load_p2ulv12402 conn=wye bus1=p2ulv12402.1.2.3 kV=0.48 Vminpu=0.8 Vmaxpu=1.2 model=1 kW=22.0202 kvar=4.471392318892901 Phases=3

New Load.load_p2ulv13373 conn=wye bus1=p2ulv13373.1.2 kV=0.2080002494301389 Vminpu=0.8 Vmaxpu=1.2 model=1 kW=8.22008 kvar=2.698891590521459 Phases=2

New Load.load_p2ulv14721 conn=wye bus1=p2ulv14721.1.2 kV=0.2080002494301389 Vminpu=0.8 Vmaxpu=1.2 model=1 kW=3.2800300000000004 kvar=0.6694632252334703 Phases=2

New Load.load_p2ulv16092 conn=wye bus1=p2ulv16092.1.2 kV=0.2080002494301389 Vminpu=0.8 Vmaxpu=1.2 model=1 kW=4.96005 kvar=1.0097734632697801 Phases=2

New Load.load_p2ulv16093 conn=wye bus1=p2ulv16093.1.2 kV=0.2080002494301389 Vminpu=0.8 Vmaxpu=1.2 model=1 kW=4.06004 kvar=1.3301434732705797 Phases=2

New Load.load_p2ulv16337 conn=wye bus1=p2ulv16337.1.2 kV=0.2080002494301389 Vminpu=0.8 Vmaxpu=1.2 model=1 kW=5.71006 kvar=1.1594771357398026 Phases=2

New Load.load_p2ulv16559 conn=wye bus1=p2ulv16559.1.2 kV=0.2080002494301389 Vminpu=0.8 Vmaxpu=1.2 model=1 kW=5.20005 kvar=1.061344635376904 Phases=2

New Load.load_p2ulv16560 conn=wye bus1=p2ulv16560.1.2 kV=0.2080002494301389 Vminpu=0.8 Vmaxpu=1.2 model=1 kW=5.770060000000001 kvar=1.1686380972885935 Phases=2

New Load.load_p2ulv16800 conn=wye bus1=p2ulv16800.1.2 kV=0.2080002494301389 Vminpu=0.8 Vmaxpu=1.2 model=1 kW=5.31005 kvar=1.0810269208245273 Phases=2

New Load.load_p2ulv17245 conn=wye bus1=p2ulv17245.1.2 kV=0.2080002494301389 Vminpu=0.8 Vmaxpu=1.2 model=1 kW=6.89007 kvar=1.399088385874534 Phases=2

New Load.load_p2ulv17483 conn=wye bus1=p2ulv17483.1.2 kV=0.2080002494301389 Vminpu=0.8 Vmaxpu=1.2 model=1 kW=5.88006 kvar=1.9305948951545013 Phases=2

New Load.load_p2ulv17702 conn=wye bus1=p2ulv17702.1.2 kV=0.2080002494301389 Vminpu=0.8 Vmaxpu=1.2 model=1 kW=5.21005 kvar=1.0606687900945995 Phases=2

New Load.load_p2ulv17704 conn=wye bus1=p2ulv17704.1.2 kV=0.2080002494301389 Vminpu=0.8 Vmaxpu=1.2 model=1 kW=4.80005 kvar=0.9696571100672596 Phases=2

New Load.load_p2ulv18144 conn=wye bus1=p2ulv18144.1.2 kV=0.2080002494301389 Vminpu=0.8 Vmaxpu=1.2 model=1 kW=1.90002 kvar=0.6298838892551953 Phases=2

New Load.load_p2ulv18384 conn=wye bus1=p2ulv18384.1.2 kV=0.2080002494301389 Vminpu=0.8 Vmaxpu=1.2 model=1 kW=7.85008 kvar=1.5899145857691672 Phases=2

New Load.load_p2ulv19039 conn=wye bus1=p2ulv19039.1.2 kV=0.2080002494301389 Vminpu=0.8 Vmaxpu=1.2 model=1 kW=5.890060000000001 kvar=1.199106114871181 Phases=2

New Load.load_p2ulv19042 conn=wye bus1=p2ulv19042.1.2 kV=0.2080002494301389 Vminpu=0.8 Vmaxpu=1.2 model=1 kW=6.83007 kvar=1.3904745795455744 Phases=2

New Load.load_p2ulv19043 conn=wye bus1=p2ulv19043.1.2 kV=0.2080002494301389 Vminpu=0.8 Vmaxpu=1.2 model=1 kW=0.720007 kvar=0.23996007735705646 Phases=2

New Load.load_p2ulv19520 conn=wye bus1=p2ulv19520.1.2 kV=0.2080002494301389 Vminpu=0.8 Vmaxpu=1.2 model=1 kW=5.14005 kvar=1.0410391316499712 Phases=2

New Load.load_p2ulv19521 conn=wye bus1=p2ulv19521.1.2 kV=0.2080002494301389 Vminpu=0.8 Vmaxpu=1.2 model=1 kW=5.890060000000001 kvar=1.199106114871181 Phases=2

New Load.load_p2ulv20417 conn=wye bus1=p2ulv20417.1.2 kV=0.2080002494301389 Vminpu=0.8 Vmaxpu=1.2 model=1 kW=2.26002 kvar=0.4600978261225126 Phases=2

New Load.load_p2ulv20630 conn=wye bus1=p2ulv20630.1.2 kV=0.2080002494301389 Vminpu=0.8 Vmaxpu=1.2 model=1 kW=5.51006 kvar=1.1188654036130017 Phases=2

New Load.load_p2ulv21050 conn=wye bus1=p2ulv21050.1.2 kV=0.2080002494301389 Vminpu=0.8 Vmaxpu=1.2 model=1 kW=3.68004 kvar=1.2095706544224234 Phases=2

New Load.load_p2ulv21740 conn=wye bus1=p2ulv21740.1.2 kV=0.2080002494301389 Vminpu=0.8 Vmaxpu=1.2 model=1 kW=6.48006 kvar=1.3192190861777544 Phases=2

New Load.load_p2ulv21981 conn=wye bus1=p2ulv21981.1.2 kV=0.2080002494301389 Vminpu=0.8 Vmaxpu=1.2 model=1 kW=6.04006 kvar=1.2296433109660727 Phases=2

New Load.load_p2ulv22215 conn=wye bus1=p2ulv22215.1.2 kV=0.2080002494301389 Vminpu=0.8 Vmaxpu=1.2 model=1 kW=3.24003 kvar=0.6596095430888772 Phases=2

New Load.load_p2ulv23129 conn=wye bus1=p2ulv23129.1.2 kV=0.2080002494301389 Vminpu=0.8 Vmaxpu=1.2 model=1 kW=5.94006 kvar=1.2092851802361448 Phases=2

New Load.load_p2ulv23333 conn=wye bus1=p2ulv23333.1.2 kV=0.2080002494301389 Vminpu=0.8 Vmaxpu=1.2 model=1 kW=2.7800300000000004 kvar=0.9196572405227132 Phases=2

New Load.load_p2ulv23334 conn=wye bus1=p2ulv23334.1.2 kV=0.2080002494301389 Vminpu=0.8 Vmaxpu=1.2 model=1 kW=2.34002 kvar=0.48003687420401825 Phases=2

New Load.load_p2ulv23763 conn=wye bus1=p2ulv23763.1.2 kV=0.2080002494301389 Vminpu=0.8 Vmaxpu=1.2 model=1 kW=4.77005 kvar=0.9710930148829175 Phases=2

New Load.load_p2ulv24012 conn=wye bus1=p2ulv24012.1.2 kV=0.2080002494301389 Vminpu=0.8 Vmaxpu=1.2 model=1 kW=1.9900200000000001 kvar=0.39990665650064394 Phases=2

New Load.load_p2ulv24214 conn=wye bus1=p2ulv24214.1.2 kV=0.2080002494301389 Vminpu=0.8 Vmaxpu=1.2 model=1 kW=6.88007 kvar=2.2589272933108893 Phases=2

