New Load.load_p1rlv52 conn=wye bus1=p1rlv52.1.2 kV=0.2080002494301389 Vminpu=0.8 Vmaxpu=1.2 model=1 kW=5.340050000000001 kvar=1.078742398644737 Phases=2

New Load.load_p1rlv53 conn=wye bus1=p1rlv53.1.2 kV=0.2080002494301389 Vminpu=0.8 Vmaxpu=1.2 model=1 kW=6.07006 kvar=1.2293985450459088 Phases=2

New Load.load_p1rlv57 conn=wye bus1=p1rlv57.1.2 kV=0.2080002494301389 Vminpu=0.8 Vmaxpu=1.2 model=1 kW=3.08003 kvar=0.6205753927367721 Phases=2

New Load.load_p1rlv58 conn=wye bus1=p1rlv58.1.2 kV=0.2080002494301389 Vminpu=0.8 Vmaxpu=1.2 model=1 kW=5.82006 kvar=1.1787648385814788 Phases=2

New Load.load_p1rlv64 conn=wye bus1=p1rlv64.1.2 kV=0.2080002494301389 Vminpu=0.8 Vmaxpu=1.2 model=1 kW=6.60007 kvar=1.3402013742906727 Phases=2

New Load.load_p1rlv65 conn=wye bus1=p1rlv65.1.2 kV=0.2080002494301389 Vminpu=0.8 Vmaxpu=1.2 model=1 kW=6.15006 kvar=1.2488229464187643 Phases=2

New Load.load_p1rlv66 conn=wye bus1=p1rlv66.1.2 kV=0.2080002494301389 Vminpu=0.8 Vmaxpu=1.2 model=1 kW=5.98006 kvar=1.2111704107187142 Phases=2

New Load.load_p1rlv67 conn=wye bus1=p1rlv67.1.2 kV=0.2080002494301389 Vminpu=0.8 Vmaxpu=1.2 model=1 kW=6.42006 kvar=1.300285734096111 Phases=2

New Load.load_p1rlv187 conn=wye bus1=p1rlv187.1.2 kV=0.2080002494301389 Vminpu=0.8 Vmaxpu=1.2 model=1 kW=2.04002 kvar=0.4099544614599067 Phases=2

New Load.load_p1rlv188 conn=wye bus1=p1rlv188.1.2 kV=0.2080002494301389 Vminpu=0.8 Vmaxpu=1.2 model=1 kW=7.31007 kvar=1.4805437544577398 Phases=2

New Load.load_p1rlv189 conn=wye bus1=p1rlv189.1.2 kV=0.2080002494301389 Vminpu=0.8 Vmaxpu=1.2 model=1 kW=5.69006 kvar=1.1613570361770957 Phases=2

New Load.load_p1rlv199 conn=wye bus1=p1rlv199.1.2 kV=0.2080002494301389 Vminpu=0.8 Vmaxpu=1.2 model=1 kW=6.54007 kvar=1.3314360004287842 Phases=2

New Load.load_p1rlv200 conn=wye bus1=p1rlv200.1.2 kV=0.2080002494301389 Vminpu=0.8 Vmaxpu=1.2 model=1 kW=4.75005 kvar=0.95955662038416 Phases=2

New Load.load_p1rlv201 conn=wye bus1=p1rlv201.1.2 kV=0.2080002494301389 Vminpu=0.8 Vmaxpu=1.2 model=1 kW=18.6202 kvar=3.780992872737287 Phases=2

New Load.load_p1rlv233 conn=wye bus1=p1rlv233.1.2 kV=0.2080002494301389 Vminpu=0.8 Vmaxpu=1.2 model=1 kW=0.340003 kvar=0.110055280977222 Phases=2

New Load.load_p1rlv338 conn=wye bus1=p1rlv338.1.2 kV=0.2080002494301389 Vminpu=0.8 Vmaxpu=1.2 model=1 kW=5.460050000000001 kvar=1.1087104399946952 Phases=2

New Load.load_p1rlv368 conn=wye bus1=p1rlv368.1.2 kV=0.2080002494301389 Vminpu=0.8 Vmaxpu=1.2 model=1 kW=3.68004 kvar=0.7491873541136322 Phases=2

New Load.load_p1rlv369 conn=wye bus1=p1rlv369.1.2 kV=0.2080002494301389 Vminpu=0.8 Vmaxpu=1.2 model=1 kW=4.76005 kvar=0.9690572018099246 Phases=2

New Load.load_p1rlv460 conn=wye bus1=p1rlv460.1.2 kV=0.2080002494301389 Vminpu=0.8 Vmaxpu=1.2 model=1 kW=4.43004 kvar=1.4592253776860786 Phases=2

New Load.load_p1rlv580 conn=wye bus1=p1rlv580.1.2 kV=0.2080002494301389 Vminpu=0.8 Vmaxpu=1.2 model=1 kW=5.890060000000001 kvar=1.199106114871181 Phases=2

New Load.load_p1rlv581 conn=wye bus1=p1rlv581.1.2 kV=0.2080002494301389 Vminpu=0.8 Vmaxpu=1.2 model=1 kW=2.14002 kvar=0.7003483130704755 Phases=2

New Load.load_p1rlv590 conn=wye bus1=p1rlv590.1.2 kV=0.2080002494301389 Vminpu=0.8 Vmaxpu=1.2 model=1 kW=6.390060000000001 kvar=1.3008967685208197 Phases=2

New Load.load_p1rlv624 conn=wye bus1=p1rlv624.1.2 kV=0.2080002494301389 Vminpu=0.8 Vmaxpu=1.2 model=1 kW=6.140060000000001 kvar=1.2500014416960006 Phases=2

New Load.load_p1rlv625 conn=wye bus1=p1rlv625.1.2 kV=0.2080002494301389 Vminpu=0.8 Vmaxpu=1.2 model=1 kW=1.75002 kvar=0.5801567372313855 Phases=2

New Load.load_p1rlv626 conn=wye bus1=p1rlv626.1.2 kV=0.2080002494301389 Vminpu=0.8 Vmaxpu=1.2 model=1 kW=2.46002 kvar=0.49952836633286324 Phases=2

New Load.load_p1rlv727 conn=wye bus1=p1rlv727.1.2 kV=0.2080002494301389 Vminpu=0.8 Vmaxpu=1.2 model=1 kW=2.65003 kvar=0.8700820042663311 Phases=2

New Load.load_p1rlv728 conn=wye bus1=p1rlv728.1.2 kV=0.2080002494301389 Vminpu=0.8 Vmaxpu=1.2 model=1 kW=5.14005 kvar=1.0410391316499712 Phases=2

New Load.load_p1rlv729 conn=wye bus1=p1rlv729.1.2 kV=0.2080002494301389 Vminpu=0.8 Vmaxpu=1.2 model=1 kW=6.04006 kvar=1.2296433109660727 Phases=2

New Load.load_p1rlv735 conn=wye bus1=p1rlv735.1.2 kV=0.2080002494301389 Vminpu=0.8 Vmaxpu=1.2 model=1 kW=0.560006 kvar=0.1800595900806027 Phases=2

New Load.load_p1rlv740 conn=wye bus1=p1rlv740.1.2 kV=0.2080002494301389 Vminpu=0.8 Vmaxpu=1.2 model=1 kW=6.98007 kvar=1.4210117756404663 Phases=2

New Load.load_p1rlv741 conn=wye bus1=p1rlv741.1.2 kV=0.2080002494301389 Vminpu=0.8 Vmaxpu=1.2 model=1 kW=17.1602 kvar=3.475538118683639 Phases=2

New Load.load_p1rlv742 conn=wye bus1=p1rlv742.1.2 kV=0.2080002494301389 Vminpu=0.8 Vmaxpu=1.2 model=1 kW=5.66006 kvar=1.149324202708102 Phases=2

New Load.load_p1rlv872 conn=wye bus1=p1rlv872.1.2 kV=0.2080002494301389 Vminpu=0.8 Vmaxpu=1.2 model=1 kW=2.1200200000000002 kvar=0.6998214961209928 Phases=2

New Load.load_p1rlv880 conn=wye bus1=p1rlv880.1.2 kV=0.2080002494301389 Vminpu=0.8 Vmaxpu=1.2 model=1 kW=2.98003 kvar=0.9794884939561677 Phases=2

New Load.load_p1rlv881 conn=wye bus1=p1rlv881.1.2 kV=0.2080002494301389 Vminpu=0.8 Vmaxpu=1.2 model=1 kW=5.26005 kvar=1.070847855459563 Phases=2

New Load.load_p1rlv927 conn=wye bus1=p1rlv927.1.2 kV=0.2080002494301389 Vminpu=0.8 Vmaxpu=1.2 model=1 kW=4.05004 kvar=1.329746048368815 Phases=2

New Load.load_p1rlv1133 conn=wye bus1=p1rlv1133.1.2 kV=0.2080002494301389 Vminpu=0.8 Vmaxpu=1.2 model=1 kW=6.42006 kvar=1.300285734096111 Phases=2

New Load.load_p1rlv1134 conn=wye bus1=p1rlv1134.1.2 kV=0.2080002494301389 Vminpu=0.8 Vmaxpu=1.2 model=1 kW=6.07006 kvar=1.2293985450459088 Phases=2

New Load.load_p1rlv1147 conn=wye bus1=p1rlv1147.1.2 kV=0.2080002494301389 Vminpu=0.8 Vmaxpu=1.2 model=1 kW=5.95006 kvar=1.2113209933091376 Phases=2

New Load.load_p1rlv1176 conn=wye bus1=p1rlv1176.1.2 kV=0.2080002494301389 Vminpu=0.8 Vmaxpu=1.2 model=1 kW=0.910009 kvar=0.30007315041800386 Phases=2

New Load.load_p1rlv1245 conn=wye bus1=p1rlv1245.1.2 kV=0.2080002494301389 Vminpu=0.8 Vmaxpu=1.2 model=1 kW=2.30002 kvar=0.7600531306837286 Phases=2

New Load.load_p1rlv1247 conn=wye bus1=p1rlv1247.1.2 kV=0.2080002494301389 Vminpu=0.8 Vmaxpu=1.2 model=1 kW=1.83002 kvar=0.6001987096879574 Phases=2

New Load.load_p1rlv1260 conn=wye bus1=p1rlv1260.1.2 kV=0.2080002494301389 Vminpu=0.8 Vmaxpu=1.2 model=1 kW=4.57005 kvar=0.9303767534230621 Phases=2

New Load.load_p1rlv1261 conn=wye bus1=p1rlv1261.1.2 kV=0.2080002494301389 Vminpu=0.8 Vmaxpu=1.2 model=1 kW=4.35004 kvar=0.8810345938741143 Phases=2

New Load.load_p1rlv1262 conn=wye bus1=p1rlv1262.1.2 kV=0.2080002494301389 Vminpu=0.8 Vmaxpu=1.2 model=1 kW=4.33004 kvar=0.879252122891664 Phases=2

New Load.load_p1rlv1263 conn=wye bus1=p1rlv1263.1.2 kV=0.2080002494301389 Vminpu=0.8 Vmaxpu=1.2 model=1 kW=4.14004 kvar=0.8406709773712032 Phases=2

New Load.load_p1rlv1264 conn=wye bus1=p1rlv1264.1.2 kV=0.2080002494301389 Vminpu=0.8 Vmaxpu=1.2 model=1 kW=8.32008 kvar=2.740578387639477 Phases=2

New Load.load_p1rlv1300 conn=wye bus1=p1rlv1300.1.2 kV=0.2080002494301389 Vminpu=0.8 Vmaxpu=1.2 model=1 kW=7.490070000000001 kvar=1.5209235822549367 Phases=2

New Load.load_p1rlv1413 conn=wye bus1=p1rlv1413.1.2 kV=0.2080002494301389 Vminpu=0.8 Vmaxpu=1.2 model=1 kW=10.5201 kvar=2.141695710919126 Phases=2

New Load.load_p1rlv1414 conn=wye bus1=p1rlv1414.1.2 kV=0.2080002494301389 Vminpu=0.8 Vmaxpu=1.2 model=1 kW=2.1200200000000002 kvar=0.6998214961209928 Phases=2

New Load.load_p1rlv1415 conn=wye bus1=p1rlv1415.1.2 kV=0.2080002494301389 Vminpu=0.8 Vmaxpu=1.2 model=1 kW=6.50007 kvar=1.319895508227272 Phases=2

New Load.load_p1rlv1416 conn=wye bus1=p1rlv1416.1.2 kV=0.2080002494301389 Vminpu=0.8 Vmaxpu=1.2 model=1 kW=6.92007 kvar=1.4015551723732291 Phases=2

New Load.load_p1rlv1424 conn=wye bus1=p1rlv1424.1.2 kV=0.2080002494301389 Vminpu=0.8 Vmaxpu=1.2 model=1 kW=6.96007 kvar=1.409656565407538 Phases=2

New Load.load_p1rlv1425 conn=wye bus1=p1rlv1425.1.2.3 kV=0.48 Vminpu=0.8 Vmaxpu=1.2 model=1 kW=20.2902 kvar=4.120100835996073 Phases=3

New Load.load_p1rlv1459 conn=wye bus1=p1rlv1459.1.2 kV=0.2080002494301389 Vminpu=0.8 Vmaxpu=1.2 model=1 kW=5.58006 kvar=1.1301564803756265 Phases=2

New Load.load_p1rlv1460 conn=wye bus1=p1rlv1460.1.2 kV=0.2080002494301389 Vminpu=0.8 Vmaxpu=1.2 model=1 kW=5.35005 kvar=1.0891701731164982 Phases=2

New Load.load_p1rlv1550 conn=wye bus1=p1rlv1550.1.2 kV=0.2080002494301389 Vminpu=0.8 Vmaxpu=1.2 model=1 kW=6.73007 kvar=1.370116448815647 Phases=2

New Load.load_p1rlv1551 conn=wye bus1=p1rlv1551.1.2 kV=0.2080002494301389 Vminpu=0.8 Vmaxpu=1.2 model=1 kW=5.15005 kvar=1.0511394966246144 Phases=2

New Load.load_p1rlv1673 conn=wye bus1=p1rlv1673.1.2 kV=0.2080002494301389 Vminpu=0.8 Vmaxpu=1.2 model=1 kW=5.55006 kvar=1.1298884703894267 Phases=2

New Load.load_p1rlv1674 conn=wye bus1=p1rlv1674.1.2.3 kV=0.48 Vminpu=0.8 Vmaxpu=1.2 model=1 kW=23.100200000000005 kvar=4.690695672377625 Phases=3

New Load.load_p1rlv1701 conn=wye bus1=p1rlv1701.1.2 kV=0.2080002494301389 Vminpu=0.8 Vmaxpu=1.2 model=1 kW=0.440004 kvar=0.14004246738579937 Phases=2

New Load.load_p1rlv1791 conn=wye bus1=p1rlv1791.1.2 kV=0.2080002494301389 Vminpu=0.8 Vmaxpu=1.2 model=1 kW=2.00002 kvar=0.6602093323043688 Phases=2

New Load.load_p1rlv1792 conn=wye bus1=p1rlv1792.1.2 kV=0.2080002494301389 Vminpu=0.8 Vmaxpu=1.2 model=1 kW=5.00005 kvar=1.0205240803677447 Phases=2

New Load.load_p1rlv1803 conn=wye bus1=p1rlv1803.1.2 kV=0.2080002494301389 Vminpu=0.8 Vmaxpu=1.2 model=1 kW=5.25005 kvar=1.0688120423865706 Phases=2

New Load.load_p1rlv1804 conn=wye bus1=p1rlv1804.1.2 kV=0.2080002494301389 Vminpu=0.8 Vmaxpu=1.2 model=1 kW=1.53002 kvar=0.5001733676026157 Phases=2

New Load.load_p1rlv1934 conn=wye bus1=p1rlv1934.1.2 kV=0.2080002494301389 Vminpu=0.8 Vmaxpu=1.2 model=1 kW=3.21003 kvar=1.0505224696057132 Phases=2

New Load.load_p1rlv1937 conn=wye bus1=p1rlv1937.1.2 kV=0.2080002494301389 Vminpu=0.8 Vmaxpu=1.2 model=1 kW=5.40005 kvar=1.0993492384814623 Phases=2

New Load.load_p1rlv1938 conn=wye bus1=p1rlv1938.1.2 kV=0.2080002494301389 Vminpu=0.8 Vmaxpu=1.2 model=1 kW=4.590050000000001 kvar=0.9296449774282256 Phases=2

New Load.load_p1rlv1947 conn=wye bus1=p1rlv1947.1.2 kV=0.2080002494301389 Vminpu=0.8 Vmaxpu=1.2 model=1 kW=6.570070000000001 kvar=1.3306679833230275 Phases=2

New Load.load_p1rlv2065 conn=wye bus1=p1rlv2065.1.2 kV=0.2080002494301389 Vminpu=0.8 Vmaxpu=1.2 model=1 kW=4.12004 kvar=1.3498005723130113 Phases=2

New Load.load_p1rlv2073 conn=wye bus1=p1rlv2073.1.2 kV=0.2080002494301389 Vminpu=0.8 Vmaxpu=1.2 model=1 kW=8.73009 kvar=2.8694418197809415 Phases=2

New Load.load_p1rlv2193 conn=wye bus1=p1rlv2193.1.2 kV=0.2080002494301389 Vminpu=0.8 Vmaxpu=1.2 model=1 kW=6.21006 kvar=1.2610064660568046 Phases=2

New Load.load_p1rlv2194 conn=wye bus1=p1rlv2194.1.2 kV=0.2080002494301389 Vminpu=0.8 Vmaxpu=1.2 model=1 kW=2.11002 kvar=0.6897790938084932 Phases=2

New Load.load_p1rlv2195 conn=wye bus1=p1rlv2195.1.2 kV=0.2080002494301389 Vminpu=0.8 Vmaxpu=1.2 model=1 kW=6.03006 kvar=1.2212971520116003 Phases=2

New Load.load_p1rlv2196 conn=wye bus1=p1rlv2196.1.2 kV=0.2080002494301389 Vminpu=0.8 Vmaxpu=1.2 model=1 kW=0.800008 kvar=0.2601000811472594 Phases=2

New Load.load_p1rlv2207 conn=wye bus1=p1rlv2207.1.2 kV=0.2080002494301389 Vminpu=0.8 Vmaxpu=1.2 model=1 kW=6.23006 kvar=1.271572534701827 Phases=2

New Load.load_p1rlv2208 conn=wye bus1=p1rlv2208.1.2 kV=0.2080002494301389 Vminpu=0.8 Vmaxpu=1.2 model=1 kW=14.0801 kvar=4.627905069328911 Phases=2

New Load.load_p1rlv2255 conn=wye bus1=p1rlv2255.1.2 kV=0.2080002494301389 Vminpu=0.8 Vmaxpu=1.2 model=1 kW=5.54006 kvar=1.8209296637372128 Phases=2

New Load.load_p1rlv2349 conn=wye bus1=p1rlv2349.1.2 kV=0.2080002494301389 Vminpu=0.8 Vmaxpu=1.2 model=1 kW=1.38001 kvar=0.45015019350021623 Phases=2

New Load.load_p1rlv2352 conn=wye bus1=p1rlv2352.1.2 kV=0.2080002494301389 Vminpu=0.8 Vmaxpu=1.2 model=1 kW=0.510005 kvar=0.1699717353476919 Phases=2

New Load.load_p1rlv2353 conn=wye bus1=p1rlv2353.1.2 kV=0.2080002494301389 Vminpu=0.8 Vmaxpu=1.2 model=1 kW=6.13006 kvar=1.2415506345973724 Phases=2

New Load.load_p1rlv2358 conn=wye bus1=p1rlv2358.1.2 kV=0.2080002494301389 Vminpu=0.8 Vmaxpu=1.2 model=1 kW=2.56003 kvar=0.5198362629828699 Phases=2

New Load.load_p1rlv2359 conn=wye bus1=p1rlv2359.1.2 kV=0.2080002494301389 Vminpu=0.8 Vmaxpu=1.2 model=1 kW=5.91006 kvar=1.200088867866603 Phases=2

New Load.load_p1rlv2360 conn=wye bus1=p1rlv2360.1.2 kV=0.2080002494301389 Vminpu=0.8 Vmaxpu=1.2 model=1 kW=6.71007 kvar=1.3590228589431081 Phases=2

New Load.load_p1rlv2361 conn=wye bus1=p1rlv2361.1.2 kV=0.2080002494301389 Vminpu=0.8 Vmaxpu=1.2 model=1 kW=6.12006 kvar=1.239525286338795 Phases=2

New Load.load_p1rlv2615 conn=wye bus1=p1rlv2615.1.2 kV=0.2080002494301389 Vminpu=0.8 Vmaxpu=1.2 model=1 kW=6.07006 kvar=1.2293985450459088 Phases=2

New Load.load_p1rlv2616 conn=wye bus1=p1rlv2616.1.2 kV=0.2080002494301389 Vminpu=0.8 Vmaxpu=1.2 model=1 kW=4.02004 kvar=1.319896174922858 Phases=2

New Load.load_p1rlv2624 conn=wye bus1=p1rlv2624.1.2 kV=0.2080002494301389 Vminpu=0.8 Vmaxpu=1.2 model=1 kW=6.530070000000001 kvar=1.3294001873557917 Phases=2

New Load.load_p1rlv2625 conn=wye bus1=p1rlv2625.1.2 kV=0.2080002494301389 Vminpu=0.8 Vmaxpu=1.2 model=1 kW=10.6201 kvar=3.4906580654100443 Phases=2

New Load.load_p1rlv2759 conn=wye bus1=p1rlv2759.1.2 kV=0.2080002494301389 Vminpu=0.8 Vmaxpu=1.2 model=1 kW=6.44006 kvar=1.3110758338857833 Phases=2

New Load.load_p1rmv1 conn=wye bus1=p1rmv1.1.2.3 kV=12.47 Vminpu=0.8 Vmaxpu=1.2 model=1 kW=901.769 kvar=183.11200534126542 Phases=3

New Load.load_p1rlv2760 conn=wye bus1=p1rlv2760.1.2 kV=0.2080002494301389 Vminpu=0.8 Vmaxpu=1.2 model=1 kW=5.520060000000001 kvar=1.1208959902193418 Phases=2

New Load.load_p1rlv2761 conn=wye bus1=p1rlv2761.1.2 kV=0.2080002494301389 Vminpu=0.8 Vmaxpu=1.2 model=1 kW=5.55006 kvar=1.1298884703894267 Phases=2

New Load.load_p1rlv2799 conn=wye bus1=p1rlv2799.1.2 kV=0.2080002494301389 Vminpu=0.8 Vmaxpu=1.2 model=1 kW=1.13001 kvar=0.3698099070348726 Phases=2

New Load.load_p1rlv2892 conn=wye bus1=p1rlv2892.1.2 kV=0.2080002494301389 Vminpu=0.8 Vmaxpu=1.2 model=1 kW=8.99009 kvar=1.8302142749381596 Phases=2

New Load.load_p1rlv2999 conn=wye bus1=p1rlv2999.1.2 kV=0.2080002494301389 Vminpu=0.8 Vmaxpu=1.2 model=1 kW=1.95002 kvar=0.40003141231071515 Phases=2

New Load.load_p1rlv3000 conn=wye bus1=p1rlv3000.1.2 kV=0.2080002494301389 Vminpu=0.8 Vmaxpu=1.2 model=1 kW=5.28005 kvar=1.069394007270052 Phases=2

New Load.load_p1rlv3001 conn=wye bus1=p1rlv3001.1.2 kV=0.2080002494301389 Vminpu=0.8 Vmaxpu=1.2 model=1 kW=3.36003 kvar=0.6805230909267135 Phases=2

New Load.load_p1rlv3012 conn=wye bus1=p1rlv3012.1.2 kV=0.2080002494301389 Vminpu=0.8 Vmaxpu=1.2 model=1 kW=5.94006 kvar=1.2092851802361448 Phases=2

New Load.load_p1rlv3013 conn=wye bus1=p1rlv3013.1.2 kV=0.2080002494301389 Vminpu=0.8 Vmaxpu=1.2 model=1 kW=6.140060000000001 kvar=2.02031812440667 Phases=2

New Load.load_p1rlv3126 conn=wye bus1=p1rlv3126.1.2 kV=0.2080002494301389 Vminpu=0.8 Vmaxpu=1.2 model=1 kW=6.08006 kvar=1.2409571184449573 Phases=2

New Load.load_p1rlv3138 conn=wye bus1=p1rlv3138.1.2 kV=0.2080002494301389 Vminpu=0.8 Vmaxpu=1.2 model=1 kW=5.600060000000001 kvar=1.1400675357543906 Phases=2

New Load.load_p1rlv3139 conn=wye bus1=p1rlv3139.1.2 kV=0.2080002494301389 Vminpu=0.8 Vmaxpu=1.2 model=1 kW=7.01007 kvar=1.419783306700424 Phases=2

New Load.load_p1rlv3140 conn=wye bus1=p1rlv3140.1.2 kV=0.2080002494301389 Vminpu=0.8 Vmaxpu=1.2 model=1 kW=3.3000300000000005 kvar=1.0799760953551654 Phases=2

New Load.load_p1rlv3165 conn=wye bus1=p1rlv3165.1.2 kV=0.2080002494301389 Vminpu=0.8 Vmaxpu=1.2 model=1 kW=6.55007 kvar=1.3300484412589724 Phases=2

New Load.load_p1rlv3166 conn=wye bus1=p1rlv3166.1.2 kV=0.2080002494301389 Vminpu=0.8 Vmaxpu=1.2 model=1 kW=6.54007 kvar=1.3314360004287842 Phases=2

New Load.load_p1rlv3167 conn=wye bus1=p1rlv3167.1.2 kV=0.2080002494301389 Vminpu=0.8 Vmaxpu=1.2 model=1 kW=1.50002 kvar=0.4898316283880489 Phases=2

New Load.load_p1rlv3274 conn=wye bus1=p1rlv3274.1.2 kV=0.2080002494301389 Vminpu=0.8 Vmaxpu=1.2 model=1 kW=5.37005 kvar=1.0904351605376348 Phases=2

New Load.load_p1rlv3275 conn=wye bus1=p1rlv3275.1.2 kV=0.2080002494301389 Vminpu=0.8 Vmaxpu=1.2 model=1 kW=6.20006 kvar=1.2589758794504644 Phases=2

New Load.load_p1rlv3387 conn=wye bus1=p1rlv3387.1.2 kV=0.2080002494301389 Vminpu=0.8 Vmaxpu=1.2 model=1 kW=5.63006 kvar=1.1402832216685126 Phases=2

New Load.load_p1rlv3400 conn=wye bus1=p1rlv3400.1.2 kV=0.2080002494301389 Vminpu=0.8 Vmaxpu=1.2 model=1 kW=7.84008 kvar=1.5919961440634443 Phases=2

New Load.load_p1rlv3401 conn=wye bus1=p1rlv3401.1.2 kV=0.2080002494301389 Vminpu=0.8 Vmaxpu=1.2 model=1 kW=5.36005 kvar=1.091205986189491 Phases=2

New Load.load_p1rlv3535 conn=wye bus1=p1rlv3535.1.2 kV=0.2080002494301389 Vminpu=0.8 Vmaxpu=1.2 model=1 kW=5.70006 kvar=1.1604256664843182 Phases=2

New Load.load_p1rlv3548 conn=wye bus1=p1rlv3548.1.2.3 kV=0.48 Vminpu=0.8 Vmaxpu=1.2 model=1 kW=107.09099999999998 kvar=21.745755025956147 Phases=3

New Load.load_p1rlv3549 conn=wye bus1=p1rlv3549.1.2 kV=0.2080002494301389 Vminpu=0.8 Vmaxpu=1.2 model=1 kW=6.310060000000001 kvar=1.2813123321202051 Phases=2

New Load.load_p1rlv3550 conn=wye bus1=p1rlv3550.1.2 kV=0.2080002494301389 Vminpu=0.8 Vmaxpu=1.2 model=1 kW=6.44006 kvar=2.1190297717394317 Phases=2

New Load.load_p1rlv3685 conn=wye bus1=p1rlv3685.1.2 kV=0.2080002494301389 Vminpu=0.8 Vmaxpu=1.2 model=1 kW=6.950070000000001 kvar=1.4112719055125744 Phases=2

New Load.load_p1rlv3686 conn=wye bus1=p1rlv3686.1.2 kV=0.2080002494301389 Vminpu=0.8 Vmaxpu=1.2 model=1 kW=4.54005 kvar=0.9195182361353397 Phases=2

New Load.load_p1rlv3687 conn=wye bus1=p1rlv3687.1.2 kV=0.2080002494301389 Vminpu=0.8 Vmaxpu=1.2 model=1 kW=5.50006 kvar=1.119709405024463 Phases=2

New Load.load_p1rlv3694 conn=wye bus1=p1rlv3694.1.2 kV=0.2080002494301389 Vminpu=0.8 Vmaxpu=1.2 model=1 kW=11.0001 kvar=2.2279033379175006 Phases=2

New Load.load_p1rlv3695 conn=wye bus1=p1rlv3695.1.2 kV=0.2080002494301389 Vminpu=0.8 Vmaxpu=1.2 model=1 kW=5.75006 kvar=1.1706047318492825 Phases=2

New Load.load_p1rlv3696 conn=wye bus1=p1rlv3696.1.2 kV=0.2080002494301389 Vminpu=0.8 Vmaxpu=1.2 model=1 kW=7.490070000000001 kvar=1.5209235822549367 Phases=2

New Load.load_p1rlv3816 conn=wye bus1=p1rlv3816.1.2 kV=0.2080002494301389 Vminpu=0.8 Vmaxpu=1.2 model=1 kW=6.08006 kvar=1.2409571184449573 Phases=2

New Load.load_p1rlv3817 conn=wye bus1=p1rlv3817.1.2 kV=0.2080002494301389 Vminpu=0.8 Vmaxpu=1.2 model=1 kW=5.80006 kvar=1.1807837972142463 Phases=2

New Load.load_p1rlv3818 conn=wye bus1=p1rlv3818.1.2 kV=0.2080002494301389 Vminpu=0.8 Vmaxpu=1.2 model=1 kW=5.39005 kvar=1.1001241626356058 Phases=2

New Load.load_p1rlv3822 conn=wye bus1=p1rlv3822.1.2 kV=0.2080002494301389 Vminpu=0.8 Vmaxpu=1.2 model=1 kW=6.08006 kvar=1.2409571184449573 Phases=2

New Load.load_p1rlv3823 conn=wye bus1=p1rlv3823.1.2 kV=0.2080002494301389 Vminpu=0.8 Vmaxpu=1.2 model=1 kW=5.29005 kvar=1.079713885131026 Phases=2

New Load.load_p1rlv3834 conn=wye bus1=p1rlv3834.1.2 kV=0.2080002494301389 Vminpu=0.8 Vmaxpu=1.2 model=1 kW=6.15006 kvar=1.2488229464187643 Phases=2

New Load.load_p1rlv3932 conn=wye bus1=p1rlv3932.1.2 kV=0.2080002494301389 Vminpu=0.8 Vmaxpu=1.2 model=1 kW=5.460050000000001 kvar=1.8004375835182096 Phases=2

New Load.load_p1rlv3935 conn=wye bus1=p1rlv3935.1.2 kV=0.2080002494301389 Vminpu=0.8 Vmaxpu=1.2 model=1 kW=1.56002 kvar=0.5099805603374024 Phases=2

New Load.load_p1rlv3942 conn=wye bus1=p1rlv3942.1.2 kV=0.2080002494301389 Vminpu=0.8 Vmaxpu=1.2 model=1 kW=5.98006 kvar=1.2111704107187142 Phases=2

New Load.load_p1rlv4068 conn=wye bus1=p1rlv4068.1.2 kV=0.2080002494301389 Vminpu=0.8 Vmaxpu=1.2 model=1 kW=0.350003 kvar=0.10999288358006297 Phases=2

New Load.load_p1rlv4069 conn=wye bus1=p1rlv4069.1.2 kV=0.2080002494301389 Vminpu=0.8 Vmaxpu=1.2 model=1 kW=4.36004 kvar=0.8898962633106831 Phases=2

New Load.load_p1rlv4070 conn=wye bus1=p1rlv4070.1.2 kV=0.2080002494301389 Vminpu=0.8 Vmaxpu=1.2 model=1 kW=4.77005 kvar=0.9710930148829175 Phases=2

New Load.load_p1rlv4071 conn=wye bus1=p1rlv4071.1.2 kV=0.2080002494301389 Vminpu=0.8 Vmaxpu=1.2 model=1 kW=6.75007 kvar=1.3706601733857733 Phases=2

New Load.load_p1rlv4072 conn=wye bus1=p1rlv4072.1.2 kV=0.2080002494301389 Vminpu=0.8 Vmaxpu=1.2 model=1 kW=4.40004 kvar=1.4493435794787077 Phases=2

New Load.load_p1rlv4085 conn=wye bus1=p1rlv4085.1.2 kV=0.2080002494301389 Vminpu=0.8 Vmaxpu=1.2 model=1 kW=0.460005 kvar=0.15005060815578652 Phases=2

New Load.load_p1rlv4201 conn=wye bus1=p1rlv4201.1.2 kV=0.2080002494301389 Vminpu=0.8 Vmaxpu=1.2 model=1 kW=5.460050000000001 kvar=1.1087104399946952 Phases=2

New Load.load_p1rlv4204 conn=wye bus1=p1rlv4204.1.2 kV=0.2080002494301389 Vminpu=0.8 Vmaxpu=1.2 model=1 kW=8.72009 kvar=1.7706897960079746 Phases=2

New Load.load_p1rlv4206 conn=wye bus1=p1rlv4206.1.2 kV=0.2080002494301389 Vminpu=0.8 Vmaxpu=1.2 model=1 kW=4.86005 kvar=0.9894153325398525 Phases=2

New Load.load_p1rlv4207 conn=wye bus1=p1rlv4207.1.2 kV=0.2080002494301389 Vminpu=0.8 Vmaxpu=1.2 model=1 kW=4.74005 kvar=0.9600252013068835 Phases=2

New Load.load_p1rlv4214 conn=wye bus1=p1rlv4214.1.2 kV=0.2080002494301389 Vminpu=0.8 Vmaxpu=1.2 model=1 kW=5.63006 kvar=1.1402832216685126 Phases=2

New Load.load_p1rlv4248 conn=wye bus1=p1rlv4248.1.2 kV=0.2080002494301389 Vminpu=0.8 Vmaxpu=1.2 model=1 kW=3.35003 kvar=0.6802526048837334 Phases=2

New Load.load_p1rlv4344 conn=wye bus1=p1rlv4344.1.2 kV=0.2080002494301389 Vminpu=0.8 Vmaxpu=1.2 model=1 kW=5.12005 kvar=1.0396704953791336 Phases=2

New Load.load_p1rlv4346 conn=wye bus1=p1rlv4346.1.2 kV=0.2080002494301389 Vminpu=0.8 Vmaxpu=1.2 model=1 kW=6.15006 kvar=1.2488229464187643 Phases=2

New Load.load_p1rlv4347 conn=wye bus1=p1rlv4347.1.2 kV=0.2080002494301389 Vminpu=0.8 Vmaxpu=1.2 model=1 kW=9.27009 kvar=3.0502195160765573 Phases=2

New Load.load_p1rlv4348 conn=wye bus1=p1rlv4348.1.2 kV=0.2080002494301389 Vminpu=0.8 Vmaxpu=1.2 model=1 kW=2.93003 kvar=0.9599314984549403 Phases=2

New Load.load_p1rlv4361 conn=wye bus1=p1rlv4361.1.2 kV=0.2080002494301389 Vminpu=0.8 Vmaxpu=1.2 model=1 kW=2.56003 kvar=0.8396229018056969 Phases=2

New Load.load_p1rlv4362 conn=wye bus1=p1rlv4362.1.2 kV=0.2080002494301389 Vminpu=0.8 Vmaxpu=1.2 model=1 kW=5.54006 kvar=1.1191463774750727 Phases=2

New Load.load_p1rlv4363 conn=wye bus1=p1rlv4363.1.2 kV=0.2080002494301389 Vminpu=0.8 Vmaxpu=1.2 model=1 kW=5.41005 kvar=1.101385051554455 Phases=2

New Load.load_p1rlv4504 conn=wye bus1=p1rlv4504.1.2 kV=0.2080002494301389 Vminpu=0.8 Vmaxpu=1.2 model=1 kW=5.49005 kvar=1.1205344401401856 Phases=2

New Load.load_p1rlv4505 conn=wye bus1=p1rlv4505.1.2 kV=0.2080002494301389 Vminpu=0.8 Vmaxpu=1.2 model=1 kW=2.8200300000000005 kvar=0.9298977113119581 Phases=2

New Load.load_p1rlv4628 conn=wye bus1=p1rlv4628.1.2 kV=0.2080002494301389 Vminpu=0.8 Vmaxpu=1.2 model=1 kW=5.08005 kvar=1.0288870420985081 Phases=2

New Load.load_p1rlv4631 conn=wye bus1=p1rlv4631.1.2 kV=0.2080002494301389 Vminpu=0.8 Vmaxpu=1.2 model=1 kW=3.06003 kvar=1.0101200803648651 Phases=2

New Load.load_p1rlv4632 conn=wye bus1=p1rlv4632.1.2 kV=0.2080002494301389 Vminpu=0.8 Vmaxpu=1.2 model=1 kW=5.600060000000001 kvar=1.1400675357543906 Phases=2

New Load.load_p1rlv4644 conn=wye bus1=p1rlv4644.1.2 kV=0.2080002494301389 Vminpu=0.8 Vmaxpu=1.2 model=1 kW=7.280070000000001 kvar=1.4782812635217957 Phases=2

New Load.load_p1rlv4645 conn=wye bus1=p1rlv4645.1.2 kV=0.2080002494301389 Vminpu=0.8 Vmaxpu=1.2 model=1 kW=5.26005 kvar=1.070847855459563 Phases=2

New Load.load_p1rlv4646 conn=wye bus1=p1rlv4646.1.2 kV=0.2080002494301389 Vminpu=0.8 Vmaxpu=1.2 model=1 kW=6.350060000000001 kvar=1.2894346785455655 Phases=2

New Load.load_p1rlv4776 conn=wye bus1=p1rlv4776.1.2 kV=0.2080002494301389 Vminpu=0.8 Vmaxpu=1.2 model=1 kW=5.75006 kvar=1.1706047318492825 Phases=2

New Load.load_p1rlv4778 conn=wye bus1=p1rlv4778.1.2 kV=0.2080002494301389 Vminpu=0.8 Vmaxpu=1.2 model=1 kW=0.690007 kvar=0.22996183800561726 Phases=2

New Load.load_p1rlv4789 conn=wye bus1=p1rlv4789.1.2 kV=0.2080002494301389 Vminpu=0.8 Vmaxpu=1.2 model=1 kW=5.53006 kvar=1.1200297390827405 Phases=2

New Load.load_p1rlv4790 conn=wye bus1=p1rlv4790.1.2 kV=0.2080002494301389 Vminpu=0.8 Vmaxpu=1.2 model=1 kW=4.94005 kvar=1.0005321664784275 Phases=2

New Load.load_p1rlv4929 conn=wye bus1=p1rlv4929.1.2 kV=0.2080002494301389 Vminpu=0.8 Vmaxpu=1.2 model=1 kW=5.84006 kvar=1.1889270495062174 Phases=2

New Load.load_p1rlv4930 conn=wye bus1=p1rlv4930.1.2 kV=0.2080002494301389 Vminpu=0.8 Vmaxpu=1.2 model=1 kW=5.520060000000001 kvar=1.1208959902193418 Phases=2

New Load.load_p1rlv4931 conn=wye bus1=p1rlv4931.1.2 kV=0.2080002494301389 Vminpu=0.8 Vmaxpu=1.2 model=1 kW=6.570070000000001 kvar=1.3306679833230275 Phases=2

New Load.load_p1rlv4939 conn=wye bus1=p1rlv4939.1.2 kV=0.2080002494301389 Vminpu=0.8 Vmaxpu=1.2 model=1 kW=6.21006 kvar=1.2610064660568046 Phases=2

New Load.load_p1rlv4940 conn=wye bus1=p1rlv4940.1.2 kV=0.2080002494301389 Vminpu=0.8 Vmaxpu=1.2 model=1 kW=6.51007 kvar=1.3185158937715642 Phases=2

New Load.load_p1rlv5049 conn=wye bus1=p1rlv5049.1.2 kV=0.2080002494301389 Vminpu=0.8 Vmaxpu=1.2 model=1 kW=1.9800200000000001 kvar=0.6500982140154719 Phases=2

New Load.load_p1rlv5050 conn=wye bus1=p1rlv5050.1.2 kV=0.2080002494301389 Vminpu=0.8 Vmaxpu=1.2 model=1 kW=5.520060000000001 kvar=1.1208959902193418 Phases=2

New Load.load_p1rlv5058 conn=wye bus1=p1rlv5058.1.2 kV=0.2080002494301389 Vminpu=0.8 Vmaxpu=1.2 model=1 kW=7.08007 kvar=2.3296179097709033 Phases=2

New Load.load_p1rlv5169 conn=wye bus1=p1rlv5169.1.2 kV=0.2080002494301389 Vminpu=0.8 Vmaxpu=1.2 model=1 kW=3.36003 kvar=1.0996118458548003 Phases=2

New Load.load_p1rlv5171 conn=wye bus1=p1rlv5171.1.2 kV=0.2080002494301389 Vminpu=0.8 Vmaxpu=1.2 model=1 kW=1.24001 kvar=0.249841622564561 Phases=2

New Load.load_p1rlv5172 conn=wye bus1=p1rlv5172.1.2 kV=0.2080002494301389 Vminpu=0.8 Vmaxpu=1.2 model=1 kW=2.89003 kvar=0.9499069244900699 Phases=2

New Load.load_p1rlv5179 conn=wye bus1=p1rlv5179.1.2 kV=0.2080002494301389 Vminpu=0.8 Vmaxpu=1.2 model=1 kW=5.57006 kvar=1.131048923251042 Phases=2

New Load.load_p1rlv5180 conn=wye bus1=p1rlv5180.1.2 kV=0.2080002494301389 Vminpu=0.8 Vmaxpu=1.2 model=1 kW=5.66006 kvar=1.149324202708102 Phases=2

New Load.load_p1rlv5295 conn=wye bus1=p1rlv5295.1.2 kV=0.2080002494301389 Vminpu=0.8 Vmaxpu=1.2 model=1 kW=7.200070000000001 kvar=1.4582649236133909 Phases=2

New Load.load_p1rlv5297 conn=wye bus1=p1rlv5297.1.2 kV=0.2080002494301389 Vminpu=0.8 Vmaxpu=1.2 model=1 kW=6.24006 kvar=1.270359572425928 Phases=2

New Load.load_p1rlv5298 conn=wye bus1=p1rlv5298.1.2 kV=0.2080002494301389 Vminpu=0.8 Vmaxpu=1.2 model=1 kW=6.58007 kvar=2.1604285588513172 Phases=2

New Load.load_p1rlv5303 conn=wye bus1=p1rlv5303.1.2 kV=0.2080002494301389 Vminpu=0.8 Vmaxpu=1.2 model=1 kW=6.100060000000001 kvar=1.2386700133870643 Phases=2

New Load.load_p1rlv5304 conn=wye bus1=p1rlv5304.1.2 kV=0.2080002494301389 Vminpu=0.8 Vmaxpu=1.2 model=1 kW=5.43005 kvar=1.0997742311487098 Phases=2

New Load.load_p1rlv5348 conn=wye bus1=p1rlv5348.1.2 kV=0.2080002494301389 Vminpu=0.8 Vmaxpu=1.2 model=1 kW=4.73005 kvar=0.960477617731872 Phases=2

New Load.load_p1rlv5441 conn=wye bus1=p1rlv5441.1.2 kV=0.2080002494301389 Vminpu=0.8 Vmaxpu=1.2 model=1 kW=5.29005 kvar=1.0686419089616372 Phases=2

New Load.load_p1rlv5442 conn=wye bus1=p1rlv5442.1.2 kV=0.2080002494301389 Vminpu=0.8 Vmaxpu=1.2 model=1 kW=1.28001 kvar=0.4198098110335856 Phases=2

New Load.load_p1rlv5443 conn=wye bus1=p1rlv5443.1.2 kV=0.2080002494301389 Vminpu=0.8 Vmaxpu=1.2 model=1 kW=5.73006 kvar=1.1605367042542845 Phases=2

New Load.load_p1rlv5454 conn=wye bus1=p1rlv5454.1.2 kV=0.2080002494301389 Vminpu=0.8 Vmaxpu=1.2 model=1 kW=5.810060000000001 kvar=1.1797830018032032 Phases=2

New Load.load_p1rlv5455 conn=wye bus1=p1rlv5455.1.2 kV=0.2080002494301389 Vminpu=0.8 Vmaxpu=1.2 model=1 kW=5.640060000000001 kvar=1.151151897424806 Phases=2

New Load.load_p1rlv5456 conn=wye bus1=p1rlv5456.1.2.3 kV=0.48 Vminpu=0.8 Vmaxpu=1.2 model=1 kW=35.970400000000005 kvar=7.304101246469388 Phases=3

New Load.load_p1rlv5490 conn=wye bus1=p1rlv5490.1.2 kV=0.2080002494301389 Vminpu=0.8 Vmaxpu=1.2 model=1 kW=6.75007 kvar=1.3706601733857733 Phases=2

New Load.load_p1rlv5562 conn=wye bus1=p1rlv5562.1.2 kV=0.2080002494301389 Vminpu=0.8 Vmaxpu=1.2 model=1 kW=10.2901 kvar=3.3785394248748024 Phases=2

New Load.load_p1rlv5572 conn=wye bus1=p1rlv5572.1.2 kV=0.2080002494301389 Vminpu=0.8 Vmaxpu=1.2 model=1 kW=3.7100400000000002 kvar=0.7494644148777485 Phases=2

New Load.load_p1rlv5573 conn=wye bus1=p1rlv5573.1.2 kV=0.2080002494301389 Vminpu=0.8 Vmaxpu=1.2 model=1 kW=4.26004 kvar=1.400207435426164 Phases=2

New Load.load_p1rlv5717 conn=wye bus1=p1rlv5717.1.2 kV=0.2080002494301389 Vminpu=0.8 Vmaxpu=1.2 model=1 kW=6.15006 kvar=1.2488229464187643 Phases=2

New Load.load_p1rlv5724 conn=wye bus1=p1rlv5724.1.2 kV=0.2080002494301389 Vminpu=0.8 Vmaxpu=1.2 model=1 kW=5.86006 kvar=1.1899359348349032 Phases=2

New Load.load_p1rlv5725 conn=wye bus1=p1rlv5725.1.2 kV=0.2080002494301389 Vminpu=0.8 Vmaxpu=1.2 model=1 kW=6.86007 kvar=1.3894030828217663 Phases=2

New Load.load_p1rlv5726 conn=wye bus1=p1rlv5726.1.2 kV=0.2080002494301389 Vminpu=0.8 Vmaxpu=1.2 model=1 kW=5.73006 kvar=1.1605367042542845 Phases=2

New Load.load_p1rlv5755 conn=wye bus1=p1rlv5755.1.2 kV=0.2080002494301389 Vminpu=0.8 Vmaxpu=1.2 model=1 kW=3.18003 kvar=1.0497322441814891 Phases=2

New Load.load_p1rlv5838 conn=wye bus1=p1rlv5838.1.2 kV=0.2080002494301389 Vminpu=0.8 Vmaxpu=1.2 model=1 kW=5.94006 kvar=1.2092851802361448 Phases=2

New Load.load_p1rlv5846 conn=wye bus1=p1rlv5846.1.2 kV=0.2080002494301389 Vminpu=0.8 Vmaxpu=1.2 model=1 kW=6.19006 kvar=1.2601805070609642 Phases=2

New Load.load_p1rlv5847 conn=wye bus1=p1rlv5847.1.2.3 kV=0.48 Vminpu=0.8 Vmaxpu=1.2 model=1 kW=109.45100000000001 kvar=22.2249734650524 Phases=3

New Load.load_p1rlv5848 conn=wye bus1=p1rlv5848.1.2 kV=0.2080002494301389 Vminpu=0.8 Vmaxpu=1.2 model=1 kW=5.48005 kvar=1.109900972441596 Phases=2
