New Line.l(r:p2udt72lv-p2ulv73) Units=km Length=0.0287244 bus1=p2udt72lv.1.2 bus2=p2ulv73.1.2 switch=n enabled=y phases=2 Linecode=1P_OH_AL_4/0_Zuzara_0_416_0_2_2_2_2

New Line.l(r:p2udt72lv-p2ulv11583) Units=km Length=0.0462381 bus1=p2udt72lv.1.2 bus2=p2ulv11583.1.2 switch=n enabled=y phases=2 Linecode=1P_OH_AL_4/0_Zuzara_0_416_0_2_2_2_2

New Line.l(r:p2udt78lv-p2ulv10156) Units=km Length=0.0173049 bus1=p2udt78lv.1.2 bus2=p2ulv10156.1.2 switch=n enabled=y phases=2 Linecode=1P_UG_AL_1/0_Brenau_0_416_0_2_2_2_2

New Line.l(r:p2udm296-p2ulv79) Units=km Length=0.0164821 bus1=p2udm296.1.2 bus2=p2ulv79.1.2 switch=n enabled=y phases=2 Linecode=1P_UG_AL_1/0_Brenau_0_416_0_2_2_2_2

New Line.l(r:p2udm296-p2udt78lv) Units=km Length=0.0089718 bus1=p2udt78lv.1.2 bus2=p2udm296.1.2 switch=n enabled=y phases=2 Linecode=1P_UG_AL_1/0_Brenau_0_416_0_2_2_2_2

New Line.l(r:p2udm297-p2ulv80) Units=km Length=0.0167645 bus1=p2udm297.1.2 bus2=p2ulv80.1.2 switch=n enabled=y phases=2 Linecode=1P_UG_AL_1/0_Brenau_0_416_0_2_2_2_2

New Line.l(r:p2udm297-p2udt78lv) Units=km Length=0.0128936 bus1=p2udt78lv.1.2 bus2=p2udm297.1.2 switch=n enabled=y phases=2 Linecode=1P_UG_AL_1/0_Brenau_0_416_0_2_2_2_2

New Line.l(r:p2udm298-p2ulv6642) Units=km Length=0.0136142 bus1=p2udm298.1.2 bus2=p2ulv6642.1.2 switch=n enabled=y phases=2 Linecode=1P_UG_AL_1/0_Brenau_0_416_0_2_2_2_2

New Line.l(r:p2udm300-p2ulv20529) Units=km Length=0.0130131 bus1=p2udm300.1.2 bus2=p2ulv20529.1.2 switch=n enabled=y phases=2 Linecode=1P_UG_AL_1/0_Brenau_0_416_0_2_2_2_2

New Line.l(r:p2udm298-p2udm300) Units=km Length=0.00838296 bus1=p2udm298.1.2 bus2=p2udm300.1.2 switch=n enabled=y phases=2 Linecode=1P_UG_AL_1/0_Brenau_0_416_0_2_2_2_2

New Line.l(r:p2udm298-p2udt78lv) Units=km Length=0.0174258 bus1=p2udt78lv.1.2 bus2=p2udm298.1.2 switch=n enabled=y phases=2 Linecode=1P_UG_AL_4/0_Sweetbriar_0_416_0_2_2_2_2

New Line.l(r:p2udt80lv-p2ulv82) Units=km Length=0.0164869 bus1=p2udt80lv.1.2 bus2=p2ulv82.1.2 switch=n enabled=y phases=2 Linecode=1P_UG_AL_1/0_Brenau_0_416_0_2_2_2_2

New Line.l(r:p2udt80lv-p2ulv2513) Units=km Length=0.0149785 bus1=p2udt80lv.1.2 bus2=p2ulv2513.1.2 switch=n enabled=y phases=2 Linecode=1P_UG_AL_1/0_Brenau_0_416_0_2_2_2_2

New Line.l(r:p2udm307-p2ulv802) Units=km Length=0.0145171 bus1=p2udm307.1.2 bus2=p2ulv802.1.2 switch=n enabled=y phases=2 Linecode=1P_UG_AL_1/0_Brenau_0_416_0_2_2_2_2

New Line.l(r:p2udm307-p2udt80lv) Units=km Length=0.00955015 bus1=p2udt80lv.1.2 bus2=p2udm307.1.2 switch=n enabled=y phases=2 Linecode=1P_UG_AL_1/0_Brenau_0_416_0_2_2_2_2

New Line.l(r:p2udm309-p2ulv21644) Units=km Length=0.016419200000000002 bus1=p2udm309.1.2 bus2=p2ulv21644.1.2 switch=n enabled=y phases=2 Linecode=1P_UG_AL_1/0_Brenau_0_416_0_2_2_2_2

New Line.l(r:p2udm309-p2udt80lv) Units=km Length=0.009560130000000002 bus1=p2udt80lv.1.2 bus2=p2udm309.1.2 switch=n enabled=y phases=2 Linecode=1P_UG_AL_1/0_Brenau_0_416_0_2_2_2_2

New Line.l(r:p2udt83lv-p2ulv85) Units=km Length=0.0125117 bus1=p2udt83lv.1.2 bus2=p2ulv85.1.2 switch=n enabled=y phases=2 Linecode=1P_UG_AL_1/0_Brenau_0_416_0_2_2_2_2

New Line.l(r:p2udt83lv-p2ulv8086) Units=km Length=0.011927300000000002 bus1=p2udt83lv.1.2 bus2=p2ulv8086.1.2 switch=n enabled=y phases=2 Linecode=1P_UG_AL_1/0_Brenau_0_416_0_2_2_2_2

New Line.l(r:p2udt83lv-p2ulv13929) Units=km Length=0.0128289 bus1=p2udt83lv.1.2 bus2=p2ulv13929.1.2 switch=n enabled=y phases=2 Linecode=1P_UG_AL_1/0_Brenau_0_416_0_2_2_2_2

New Line.l(r:p2udt84lv-p2ulv86) Units=km Length=0.00675065 bus1=p2udt84lv.1.2 bus2=p2ulv86.1.2 switch=n enabled=y phases=2 Linecode=1P_OH_AL_2/0_Rucina_0_416_0_2_2_2_2

New Line.l(r:p2udt84lv-p2ulv21871) Units=km Length=0.00675065 bus1=p2udt84lv.1.2 bus2=p2ulv21871.1.2 switch=n enabled=y phases=2 Linecode=1P_OH_AL_2/0_Rucina_0_416_0_2_2_2_2

New Line.l(r:p2udt340lv-p2ulv350) Units=km Length=0.011672 bus1=p2udt340lv.1.2 bus2=p2ulv350.1.2 switch=n enabled=y phases=2 Linecode=1P_UG_AL_1/0_Brenau_0_416_0_2_2_2_2

New Line.l(r:p2udm1249-p2ulv15967) Units=km Length=0.013503500000000002 bus1=p2udm1249.1.2 bus2=p2ulv15967.1.2 switch=n enabled=y phases=2 Linecode=1P_UG_AL_1/0_Brenau_0_416_0_2_2_2_2

New Line.l(r:p2udm1249-p2udt340lv) Units=km Length=0.0365569 bus1=p2udt340lv.1.2 bus2=p2udm1249.1.2 switch=n enabled=y phases=2 Linecode=1P_UG_AL_1/0_Brenau_0_416_0_2_2_2_2

New Line.l(r:p2udt341lv-p2ulv6414) Units=km Length=0.0115985 bus1=p2udt341lv.1.2 bus2=p2ulv6414.1.2 switch=n enabled=y phases=2 Linecode=1P_UG_AL_1/0_Brenau_0_416_0_2_2_2_2

New Line.l(r:p2udt341lv-p2ulv16929) Units=km Length=0.0125372 bus1=p2udt341lv.1.2 bus2=p2ulv16929.1.2 switch=n enabled=y phases=2 Linecode=1P_UG_AL_1/0_Brenau_0_416_0_2_2_2_2

New Line.l(r:p2udm1250-p2ulv351) Units=km Length=0.0131302 bus1=p2udm1250.1.2 bus2=p2ulv351.1.2 switch=n enabled=y phases=2 Linecode=1P_UG_AL_4/0_Sweetbriar_0_416_0_2_2_2_2

New Line.l(r:p2udm1250-p2udt341lv) Units=km Length=0.00988032 bus1=p2udt341lv.1.2 bus2=p2udm1250.1.2 switch=n enabled=y phases=2 Linecode=1P_UG_AL_4/0_Sweetbriar_0_416_0_2_2_2_2

New Line.l(r:p2udm1253-p2ulv17595) Units=km Length=0.012037 bus1=p2udm1253.1.2 bus2=p2ulv17595.1.2 switch=n enabled=y phases=2 Linecode=1P_UG_AL_1/0_Brenau_0_416_0_2_2_2_2

New Line.l(r:p2udm1253-p2udt341lv) Units=km Length=0.00988032 bus1=p2udt341lv.1.2 bus2=p2udm1253.1.2 switch=n enabled=y phases=2 Linecode=1P_UG_AL_1/0_Brenau_0_416_0_2_2_2_2

New Line.l(r:p2udt545lv-p2ulv577) Units=km Length=0.0147295 bus1=p2udt545lv.1.2 bus2=p2ulv577.1.2 switch=n enabled=y phases=2 Linecode=1P_UG_AL_1/0_Brenau_0_416_0_2_2_2_2

New Line.l(r:p2udm2026-p2ulv5662) Units=km Length=0.015074900000000002 bus1=p2udm2026.1.2 bus2=p2ulv5662.1.2 switch=n enabled=y phases=2 Linecode=1P_UG_AL_1/0_Brenau_0_416_0_2_2_2_2

New Line.l(r:p2udm2026-p2ulv18269) Units=km Length=0.0157579 bus1=p2udm2026.1.2 bus2=p2ulv18269.1.2 switch=n enabled=y phases=2 Linecode=1P_UG_AL_1/0_Brenau_0_416_0_2_2_2_2

New Line.l(r:p2udm2026-p2udt545lv) Units=km Length=0.00930627 bus1=p2udt545lv.1.2 bus2=p2udm2026.1.2 switch=n enabled=y phases=2 Linecode=1P_UG_AL_4/0_Sweetbriar_0_416_0_2_2_2_2

New Line.l(r:p2udm2027-p2ulv17594) Units=km Length=0.0145082 bus1=p2udm2027.1.2 bus2=p2ulv17594.1.2 switch=n enabled=y phases=2 Linecode=1P_UG_AL_1/0_Brenau_0_416_0_2_2_2_2

New Line.l(r:p2udm2027-p2udt545lv) Units=km Length=0.00931684 bus1=p2udt545lv.1.2 bus2=p2udm2027.1.2 switch=n enabled=y phases=2 Linecode=1P_UG_AL_1/0_Brenau_0_416_0_2_2_2_2

New Line.l(r:p2udm2031-p2ulv579) Units=km Length=0.0144509 bus1=p2udm2031.1.2 bus2=p2ulv579.1.2 switch=n enabled=y phases=2 Linecode=1P_UG_AL_1/0_Brenau_0_416_0_2_2_2_2

New Line.l(r:p2udm2033-p2ulv12063) Units=km Length=0.0148815 bus1=p2udm2033.1.2 bus2=p2ulv12063.1.2 switch=n enabled=y phases=2 Linecode=1P_UG_AL_1/0_Brenau_0_416_0_2_2_2_2

New Line.l(r:p2udm2031-p2udm2033) Units=km Length=0.0372878 bus1=p2udm2031.1.2 bus2=p2udm2033.1.2 switch=n enabled=y phases=2 Linecode=1P_UG_AL_1/0_Brenau_0_416_0_2_2_2_2

New Line.l(r:p2udm2031-p2udt547lv) Units=km Length=0.0776269 bus1=p2udt547lv.1.2 bus2=p2udm2031.1.2 switch=n enabled=y phases=2 Linecode=1P_UG_AL_4/0_Sweetbriar_0_416_0_2_2_2_2

New Line.l(r:p2udm2032-p2ulv7864) Units=km Length=0.0132144 bus1=p2udm2032.1.2 bus2=p2ulv7864.1.2 switch=n enabled=y phases=2 Linecode=1P_UG_AL_1/0_Brenau_0_416_0_2_2_2_2

New Line.l(r:p2udm2034-p2ulv21647) Units=km Length=0.014409900000000002 bus1=p2udm2034.1.2 bus2=p2ulv21647.1.2 switch=n enabled=y phases=2 Linecode=1P_UG_AL_1/0_Brenau_0_416_0_2_2_2_2

New Line.l(r:p2udm2032-p2udm2034) Units=km Length=0.00928421 bus1=p2udm2032.1.2 bus2=p2udm2034.1.2 switch=n enabled=y phases=2 Linecode=1P_UG_AL_1/0_Brenau_0_416_0_2_2_2_2

New Line.l(r:p2udm2032-p2udt547lv) Units=km Length=0.00927979 bus1=p2udt547lv.1.2 bus2=p2udm2032.1.2 switch=n enabled=y phases=2 Linecode=1P_UG_AL_4/0_Sweetbriar_0_416_0_2_2_2_2

New Line.l(r:p2udt748lv-p2ulv1064) Units=km Length=0.0114147 bus1=p2udt748lv.1.2 bus2=p2ulv1064.1.2 switch=n enabled=y phases=2 Linecode=1P_UG_AL_1/0_Brenau_0_416_0_2_2_2_2

New Line.l(r:p2udm2770-p2ulv799) Units=km Length=0.0129013 bus1=p2udm2770.1.2 bus2=p2ulv799.1.2 switch=n enabled=y phases=2 Linecode=1P_UG_AL_1/0_Brenau_0_416_0_2_2_2_2

New Line.l(r:p2udm2774-p2ulv17139) Units=km Length=0.0136026 bus1=p2udm2774.1.2 bus2=p2ulv17139.1.2 switch=n enabled=y phases=2 Linecode=1P_UG_AL_1/0_Brenau_0_416_0_2_2_2_2

New Line.l(r:p2udm2774-p2ulv23430) Units=km Length=0.0165895 bus1=p2udm2774.1.2 bus2=p2ulv23430.1.2 switch=n enabled=y phases=2 Linecode=1P_UG_AL_1/0_Brenau_0_416_0_2_2_2_2

New Line.l(r:p2udm2770-p2udm2774) Units=km Length=0.00931709 bus1=p2udm2770.1.2 bus2=p2udm2774.1.2 switch=n enabled=y phases=2 Linecode=1P_UG_AL_2/0_Converse_0_416_0_2_2_2_2

New Line.l(r:p2udm2770-p2udt748lv) Units=km Length=0.00931709 bus1=p2udt748lv.1.2 bus2=p2udm2770.1.2 switch=n enabled=y phases=2 Linecode=1P_UG_AL_4/0_Sweetbriar_0_416_0_2_2_2_2

New Line.l(r:p2udm2773-p2ulv15966) Units=km Length=0.012951700000000002 bus1=p2udm2773.1.2 bus2=p2ulv15966.1.2 switch=n enabled=y phases=2 Linecode=1P_UG_AL_1/0_Brenau_0_416_0_2_2_2_2

New Line.l(r:p2udm2772-p2ulv12533) Units=km Length=0.0171061 bus1=p2udm2772.1.2 bus2=p2ulv12533.1.2 switch=n enabled=y phases=2 Linecode=1P_UG_AL_1/0_Brenau_0_416_0_2_2_2_2

New Line.l(r:p2udm2772-p2udm2773) Units=km Length=0.029692200000000002 bus1=p2udm2773.1.2 bus2=p2udm2772.1.2 switch=n enabled=y phases=2 Linecode=1P_UG_AL_1/0_Brenau_0_416_0_2_2_2_2

New Line.l(r:p2udm2773-p2udt748lv) Units=km Length=0.00931634 bus1=p2udt748lv.1.2 bus2=p2udm2773.1.2 switch=n enabled=y phases=2 Linecode=1P_UG_AL_4/0_Sweetbriar_0_416_0_2_2_2_2

New Line.l(r:p2udt990lv-p2ulv1067) Units=km Length=0.0161631 bus1=p2udt990lv.1.2 bus2=p2ulv1067.1.2 switch=n enabled=y phases=2 Linecode=1P_UG_AL_1/0_Brenau_0_416_0_2_2_2_2

New Line.l(r:p2udm3646-p2ulv8980) Units=km Length=0.016126 bus1=p2udm3646.1.2 bus2=p2ulv8980.1.2 switch=n enabled=y phases=2 Linecode=1P_UG_AL_1/0_Brenau_0_416_0_2_2_2_2

New Line.l(r:p2udm3647-p2ulv15968) Units=km Length=0.0160819 bus1=p2udm3647.1.2 bus2=p2ulv15968.1.2 switch=n enabled=y phases=2 Linecode=1P_UG_AL_1/0_Brenau_0_416_0_2_2_2_2

New Line.l(r:p2udm3646-p2udm3647) Units=km Length=0.00864227 bus1=p2udm3646.1.2 bus2=p2udm3647.1.2 switch=n enabled=y phases=2 Linecode=1P_UG_AL_1/0_Brenau_0_416_0_2_2_2_2

New Line.l(r:p2udm3646-p2udt990lv) Units=km Length=0.018523 bus1=p2udt990lv.1.2 bus2=p2udm3646.1.2 switch=n enabled=y phases=2 Linecode=1P_UG_AL_4/0_Sweetbriar_0_416_0_2_2_2_2

New Line.l(r:p2udm3649-p2ulv19639) Units=km Length=0.0157269 bus1=p2udm3649.1.2 bus2=p2ulv19639.1.2 switch=n enabled=y phases=2 Linecode=1P_UG_AL_1/0_Brenau_0_416_0_2_2_2_2

New Line.l(r:p2udm3645-p2ulv7590) Units=km Length=0.0157255 bus1=p2udm3645.1.2 bus2=p2ulv7590.1.2 switch=n enabled=y phases=2 Linecode=1P_UG_AL_1/0_Brenau_0_416_0_2_2_2_2

New Line.l(r:p2udm3645-p2ulv17140) Units=km Length=0.015192300000000002 bus1=p2udm3645.1.2 bus2=p2ulv17140.1.2 switch=n enabled=y phases=2 Linecode=1P_UG_AL_1/0_Brenau_0_416_0_2_2_2_2

New Line.l(r:p2udm3645-p2udm3649) Units=km Length=0.00989073 bus1=p2udm3649.1.2 bus2=p2udm3645.1.2 switch=n enabled=y phases=2 Linecode=1P_UG_AL_4/0_Sweetbriar_0_416_0_2_2_2_2

New Line.l(r:p2udm3649-p2udt990lv) Units=km Length=0.00989073 bus1=p2udt990lv.1.2 bus2=p2udm3649.1.2 switch=n enabled=y phases=2 Linecode=1P_UG_AL_4/0_Sweetbriar_0_416_0_2_2_2_2

New Line.l(r:p2udt991lv-p2ulv1068) Units=km Length=0.013201800000000001 bus1=p2udt991lv.1.2 bus2=p2ulv1068.1.2 switch=n enabled=y phases=2 Linecode=1P_UG_AL_1/0_Brenau_0_416_0_2_2_2_2

New Line.l(r:p2udt991lv-p2ulv12542) Units=km Length=0.015139 bus1=p2udt991lv.1.2 bus2=p2ulv12542.1.2 switch=n enabled=y phases=2 Linecode=1P_UG_AL_1/0_Brenau_0_416_0_2_2_2_2

New Line.l(r:p2udm3652-p2ulv18038) Units=km Length=0.021618300000000003 bus1=p2udm3652.1.2 bus2=p2ulv18038.1.2 switch=n enabled=y phases=2 Linecode=1P_UG_AL_1/0_Brenau_0_416_0_2_2_2_2

New Line.l(r:p2udm3652-p2udt991lv) Units=km Length=0.11154400000000002 bus1=p2udt991lv.1.2 bus2=p2udm3652.1.2 switch=n enabled=y phases=2 Linecode=1P_UG_AL_1/0_Brenau_0_416_0_2_2_2_2

New Line.l(r:p2udm4389-p2ulv1306) Units=km Length=0.0117686 bus1=p2udm4389.1.2 bus2=p2ulv1306.1.2 switch=n enabled=y phases=2 Linecode=1P_UG_AL_1/0_Brenau_0_416_0_2_2_2_2

New Line.l(r:p2udm4389-p2udt1191lv) Units=km Length=0.00904055 bus1=p2udt1191lv.1.2 bus2=p2udm4389.1.2 switch=n enabled=y phases=2 Linecode=1P_UG_AL_1/0_Brenau_0_416_0_2_2_2_2

New Line.l(r:p2udm4390-p2ulv20744) Units=km Length=0.0126167 bus1=p2udm4390.1.2 bus2=p2ulv20744.1.2 switch=n enabled=y phases=2 Linecode=1P_UG_AL_4/0_Sweetbriar_0_416_0_2_2_2_2

New Line.l(r:p2udm4390-p2udt1191lv) Units=km Length=0.00904045 bus1=p2udt1191lv.1.2 bus2=p2udm4390.1.2 switch=n enabled=y phases=2 Linecode=1P_UG_AL_4/0_Sweetbriar_0_416_0_2_2_2_2

New Line.l(r:p2udt1192lv-p2ulv10639) Units=km Length=0.014350700000000001 bus1=p2udt1192lv.1.2 bus2=p2ulv10639.1.2 switch=n enabled=y phases=2 Linecode=1P_UG_AL_1/0_Brenau_0_416_0_2_2_2_2

New Line.l(r:p2udt1192lv-p2ulv18035) Units=km Length=0.0159113 bus1=p2udt1192lv.1.2 bus2=p2ulv18035.1.2 switch=n enabled=y phases=2 Linecode=1P_UG_AL_1/0_Brenau_0_416_0_2_2_2_2

New Line.l(r:p2udm4391-p2ulv1307) Units=km Length=0.0147238 bus1=p2udm4391.1.2 bus2=p2ulv1307.1.2 switch=n enabled=y phases=2 Linecode=1P_UG_AL_1/0_Brenau_0_416_0_2_2_2_2

New Line.l(r:p2udm4396-p2ulv23641) Units=km Length=0.0159916 bus1=p2udm4396.1.2 bus2=p2ulv23641.1.2 switch=n enabled=y phases=2 Linecode=1P_UG_AL_1/0_Brenau_0_416_0_2_2_2_2

New Line.l(r:p2udm4391-p2udm4396) Units=km Length=0.00930686 bus1=p2udm4391.1.2 bus2=p2udm4396.1.2 switch=n enabled=y phases=2 Linecode=1P_UG_AL_1/0_Brenau_0_416_0_2_2_2_2

New Line.l(r:p2udm4391-p2udt1192lv) Units=km Length=0.00931625 bus1=p2udt1192lv.1.2 bus2=p2udm4391.1.2 switch=n enabled=y phases=2 Linecode=1P_UG_AL_4/0_Sweetbriar_0_416_0_2_2_2_2

New Line.l(r:p2udm4392-p2ulv10388) Units=km Length=0.015440000000000002 bus1=p2udm4392.1.2 bus2=p2ulv10388.1.2 switch=n enabled=y phases=2 Linecode=1P_UG_AL_1/0_Brenau_0_416_0_2_2_2_2

New Line.l(r:p2udm4394-p2ulv13927) Units=km Length=0.014919 bus1=p2udm4394.1.2 bus2=p2ulv13927.1.2 switch=n enabled=y phases=2 Linecode=1P_UG_AL_1/0_Brenau_0_416_0_2_2_2_2

New Line.l(r:p2udm4392-p2udm4394) Units=km Length=0.00930686 bus1=p2udm4392.1.2 bus2=p2udm4394.1.2 switch=n enabled=y phases=2 Linecode=1P_UG_AL_1/0_Brenau_0_416_0_2_2_2_2

New Line.l(r:p2udm4392-p2udt1192lv) Units=km Length=0.00931684 bus1=p2udt1192lv.1.2 bus2=p2udm4392.1.2 switch=n enabled=y phases=2 Linecode=1P_UG_AL_4/0_Sweetbriar_0_416_0_2_2_2_2

New Line.l(r:p2udt1193lv-p2ulv18919) Units=km Length=0.01594 bus1=p2udt1193lv.1.2 bus2=p2ulv18919.1.2 switch=n enabled=y phases=2 Linecode=1P_UG_AL_1/0_Brenau_0_416_0_2_2_2_2

New Line.l(r:p2udm4397-p2ulv1308) Units=km Length=0.0166231 bus1=p2udm4397.1.2 bus2=p2ulv1308.1.2 switch=n enabled=y phases=2 Linecode=1P_UG_AL_1/0_Brenau_0_416_0_2_2_2_2

New Line.l(r:p2udm4397-p2ulv17388) Units=km Length=0.0152006 bus1=p2udm4397.1.2 bus2=p2ulv17388.1.2 switch=n enabled=y phases=2 Linecode=1P_UG_AL_1/0_Brenau_0_416_0_2_2_2_2

New Line.l(r:p2udm4397-p2udt1193lv) Units=km Length=0.00955015 bus1=p2udt1193lv.1.2 bus2=p2udm4397.1.2 switch=n enabled=y phases=2 Linecode=1P_UG_AL_4/0_Sweetbriar_0_416_0_2_2_2_2

New Line.l(r:p2udm4398-p2ulv7591) Units=km Length=0.0148375 bus1=p2udm4398.1.2 bus2=p2ulv7591.1.2 switch=n enabled=y phases=2 Linecode=1P_UG_AL_1/0_Brenau_0_416_0_2_2_2_2

New Line.l(r:p2udm4398-p2ulv18270) Units=km Length=0.0161744 bus1=p2udm4398.1.2 bus2=p2ulv18270.1.2 switch=n enabled=y phases=2 Linecode=1P_UG_AL_1/0_Brenau_0_416_0_2_2_2_2

New Line.l(r:p2udm4398-p2udt1193lv) Units=km Length=0.00930627 bus1=p2udt1193lv.1.2 bus2=p2udm4398.1.2 switch=n enabled=y phases=2 Linecode=1P_UG_AL_4/0_Sweetbriar_0_416_0_2_2_2_2

New Line.l(r:p2udt1194lv-p2ulv18273) Units=km Length=0.014287300000000001 bus1=p2udt1194lv.1.2 bus2=p2ulv18273.1.2 switch=n enabled=y phases=2 Linecode=1P_UG_AL_1/0_Brenau_0_416_0_2_2_2_2

New Line.l(r:p2udt1194lv-p2ulv23894) Units=km Length=0.013657900000000002 bus1=p2udt1194lv.1.2 bus2=p2ulv23894.1.2 switch=n enabled=y phases=2 Linecode=1P_UG_AL_1/0_Brenau_0_416_0_2_2_2_2

New Line.l(r:p2udm4403-p2ulv4214) Units=km Length=0.0111199 bus1=p2udm4403.1.2 bus2=p2ulv4214.1.2 switch=n enabled=y phases=2 Linecode=1P_UG_AL_1/0_Brenau_0_416_0_2_2_2_2

New Line.l(r:p2udm4403-p2udt1194lv) Units=km Length=0.0557291 bus1=p2udt1194lv.1.2 bus2=p2udm4403.1.2 switch=n enabled=y phases=2 Linecode=1P_UG_AL_1/0_Brenau_0_416_0_2_2_2_2

New Line.l(r:p2udm4404-p2ulv4710) Units=km Length=0.0143405 bus1=p2udm4404.1.2 bus2=p2ulv4710.1.2 switch=n enabled=y phases=2 Linecode=1P_UG_AL_1/0_Brenau_0_416_0_2_2_2_2

New Line.l(r:p2udm4402-p2ulv1310) Units=km Length=0.0141943 bus1=p2udm4402.1.2 bus2=p2ulv1310.1.2 switch=n enabled=y phases=2 Linecode=1P_UG_AL_1/0_Brenau_0_416_0_2_2_2_2

New Line.l(r:p2udm4402-p2ulv18272) Units=km Length=0.013953900000000002 bus1=p2udm4402.1.2 bus2=p2ulv18272.1.2 switch=n enabled=y phases=2 Linecode=1P_UG_AL_1/0_Brenau_0_416_0_2_2_2_2

New Line.l(r:p2udm4402-p2udm4404) Units=km Length=0.00937969 bus1=p2udm4404.1.2 bus2=p2udm4402.1.2 switch=n enabled=y phases=2 Linecode=1P_UG_AL_4/0_Sweetbriar_0_416_0_2_2_2_2

New Line.l(r:p2udm4404-p2udt1194lv) Units=km Length=0.00937506 bus1=p2udt1194lv.1.2 bus2=p2udm4404.1.2 switch=n enabled=y phases=2 Linecode=1P_UG_AL_4/0_Sweetbriar_0_416_0_2_2_2_2

New Line.l(r:p2udt1414lv-p2ulv1564) Units=km Length=0.0155776 bus1=p2udt1414lv.1.2 bus2=p2ulv1564.1.2 switch=n enabled=y phases=2 Linecode=1P_UG_AL_1/0_Brenau_0_416_0_2_2_2_2

New Line.l(r:p2udm5190-p2ulv3723) Units=km Length=0.0158555 bus1=p2udm5190.1.2 bus2=p2ulv3723.1.2 switch=n enabled=y phases=2 Linecode=1P_UG_AL_1/0_Brenau_0_416_0_2_2_2_2

New Line.l(r:p2udm5190-p2ulv22341) Units=km Length=0.016032700000000004 bus1=p2udm5190.1.2 bus2=p2ulv22341.1.2 switch=n enabled=y phases=2 Linecode=1P_UG_AL_1/0_Brenau_0_416_0_2_2_2_2

New Line.l(r:p2udm5190-p2udt1414lv) Units=km Length=0.00990548 bus1=p2udt1414lv.1.2 bus2=p2udm5190.1.2 switch=n enabled=y phases=2 Linecode=1P_UG_AL_4/0_Sweetbriar_0_416_0_2_2_2_2

New Line.l(r:p2udm5192-p2ulv17141) Units=km Length=0.016031800000000002 bus1=p2udm5192.1.2 bus2=p2ulv17141.1.2 switch=n enabled=y phases=2 Linecode=1P_UG_AL_1/0_Brenau_0_416_0_2_2_2_2

New Line.l(r:p2udm5191-p2ulv7859) Units=km Length=0.0151346 bus1=p2udm5191.1.2 bus2=p2ulv7859.1.2 switch=n enabled=y phases=2 Linecode=1P_UG_AL_1/0_Brenau_0_416_0_2_2_2_2

New Line.l(r:p2udm5191-p2ulv23022) Units=km Length=0.016691000000000004 bus1=p2udm5191.1.2 bus2=p2ulv23022.1.2 switch=n enabled=y phases=2 Linecode=1P_UG_AL_1/0_Brenau_0_416_0_2_2_2_2

New Line.l(r:p2udm5191-p2udm5192) Units=km Length=0.00990548 bus1=p2udm5192.1.2 bus2=p2udm5191.1.2 switch=n enabled=y phases=2 Linecode=1P_UG_AL_4/0_Sweetbriar_0_416_0_2_2_2_2

New Line.l(r:p2udm5192-p2udt1414lv) Units=km Length=0.00990548 bus1=p2udt1414lv.1.2 bus2=p2udm5192.1.2 switch=n enabled=y phases=2 Linecode=1P_UG_AL_4/0_Sweetbriar_0_416_0_2_2_2_2

New Line.l(r:p2udt1597lv-p2ulv1779) Units=km Length=0.0726277 bus1=p2udt1597lv.1.2 bus2=p2ulv1779.1.2 switch=n enabled=y phases=2 Linecode=1P_OH_AL_4/0_Zuzara_0_416_0_2_2_2_2

New Line.l(r:p2udm5819-p2ulv5187) Units=km Length=0.092204 bus1=p2udm5819.1.2 bus2=p2ulv5187.1.2 switch=n enabled=y phases=2 Linecode=1P_OH_AL_4/0_Zuzara_0_416_0_2_2_2_2

New Line.l(r:p2udm5819-p2udt1597lv) Units=km Length=0.0197924 bus1=p2udt1597lv.1.2 bus2=p2udm5819.1.2 switch=n enabled=y phases=2 Linecode=1P_OH_AL_2/0_Rucina_0_416_0_2_2_2_2

New Line.l(r:p2udm5820-p2ulv12059) Units=km Length=0.0722341 bus1=p2udm5820.1.2 bus2=p2ulv12059.1.2 switch=n enabled=y phases=2 Linecode=1P_OH_AL_4/0_Zuzara_0_416_0_2_2_2_2

New Line.l(r:p2udm5820-p2udt1597lv) Units=km Length=0.0387308 bus1=p2udt1597lv.1.2 bus2=p2udm5820.1.2 switch=n enabled=y phases=2 Linecode=1P_OH_AL_4/0_Zuzara_0_416_0_2_2_2_2

New Line.l(r:p2udt1606lv-p2ulv11593) Units=km Length=0.00989008 bus1=p2udt1606lv.1.2 bus2=p2ulv11593.1.2 switch=n enabled=y phases=2 Linecode=1P_UG_AL_1/0_Brenau_0_416_0_2_2_2_2

New Line.l(r:p2udm5853-p2ulv1789) Units=km Length=0.0153128 bus1=p2udm5853.1.2 bus2=p2ulv1789.1.2 switch=n enabled=y phases=2 Linecode=1P_UG_AL_1/0_Brenau_0_416_0_2_2_2_2

New Line.l(r:p2udm5856-p2ulv12536) Units=km Length=0.015136900000000002 bus1=p2udm5856.1.2 bus2=p2ulv12536.1.2 switch=n enabled=y phases=2 Linecode=1P_UG_AL_1/0_Brenau_0_416_0_2_2_2_2

New Line.l(r:p2udm5853-p2udm5856) Units=km Length=0.00881909 bus1=p2udm5853.1.2 bus2=p2udm5856.1.2 switch=n enabled=y phases=2 Linecode=1P_UG_AL_1/0_Brenau_0_416_0_2_2_2_2

New Line.l(r:p2udm5853-p2udt1606lv) Units=km Length=0.0520953 bus1=p2udt1606lv.1.2 bus2=p2udm5853.1.2 switch=n enabled=y phases=2 Linecode=1P_UG_AL_4/0_Sweetbriar_0_416_0_2_2_2_2

New Line.l(r:p2udm5854-p2ulv4706) Units=km Length=0.0141633 bus1=p2udm5854.1.2 bus2=p2ulv4706.1.2 switch=n enabled=y phases=2 Linecode=1P_UG_AL_1/0_Brenau_0_416_0_2_2_2_2

New Line.l(r:p2udm5854-p2udt1606lv) Units=km Length=0.00950928 bus1=p2udt1606lv.1.2 bus2=p2udm5854.1.2 switch=n enabled=y phases=2 Linecode=1P_UG_AL_1/0_Brenau_0_416_0_2_2_2_2

New Line.l(r:p2udt1607lv-p2ulv16928) Units=km Length=0.0159897 bus1=p2udt1607lv.1.2 bus2=p2ulv16928.1.2 switch=n enabled=y phases=2 Linecode=1P_UG_AL_1/0_Brenau_0_416_0_2_2_2_2

New Line.l(r:p2udm5857-p2ulv1790) Units=km Length=0.0161991 bus1=p2udm5857.1.2 bus2=p2ulv1790.1.2 switch=n enabled=y phases=2 Linecode=1P_UG_AL_1/0_Brenau_0_416_0_2_2_2_2

New Line.l(r:p2udm5857-p2ulv19154) Units=km Length=0.0150693 bus1=p2udm5857.1.2 bus2=p2ulv19154.1.2 switch=n enabled=y phases=2 Linecode=1P_UG_AL_1/0_Brenau_0_416_0_2_2_2_2

New Line.l(r:p2udm5857-p2udt1607lv) Units=km Length=0.009560130000000002 bus1=p2udt1607lv.1.2 bus2=p2udm5857.1.2 switch=n enabled=y phases=2 Linecode=1P_UG_AL_4/0_Sweetbriar_0_416_0_2_2_2_2

New Line.l(r:p2udm5858-p2ulv12537) Units=km Length=0.014903400000000002 bus1=p2udm5858.1.2 bus2=p2ulv12537.1.2 switch=n enabled=y phases=2 Linecode=1P_UG_AL_1/0_Brenau_0_416_0_2_2_2_2

New Line.l(r:p2udm5858-p2udt1607lv) Units=km Length=0.00955015 bus1=p2udt1607lv.1.2 bus2=p2udm5858.1.2 switch=n enabled=y phases=2 Linecode=1P_UG_AL_1/0_Brenau_0_416_0_2_2_2_2

New Line.l(r:p2udt1782lv-p2ulv2014) Units=km Length=0.0155057 bus1=p2udt1782lv.1.2 bus2=p2ulv2014.1.2 switch=n enabled=y phases=2 Linecode=1P_UG_AL_1/0_Brenau_0_416_0_2_2_2_2

New Line.l(r:p2udm6468-p2ulv12535) Units=km Length=0.0159335 bus1=p2udm6468.1.2 bus2=p2ulv12535.1.2 switch=n enabled=y phases=2 Linecode=1P_UG_AL_1/0_Brenau_0_416_0_2_2_2_2

New Line.l(r:p2udm6468-p2udt1782lv) Units=km Length=0.00989073 bus1=p2udt1782lv.1.2 bus2=p2udm6468.1.2 switch=n enabled=y phases=2 Linecode=1P_UG_AL_1/0_Brenau_0_416_0_2_2_2_2

New Line.l(r:p2udm6469-p2ulv13025) Units=km Length=0.015401200000000002 bus1=p2udm6469.1.2 bus2=p2ulv13025.1.2 switch=n enabled=y phases=2 Linecode=1P_UG_AL_1/0_Brenau_0_416_0_2_2_2_2

New Line.l(r:p2udm6469-p2udt1782lv) Units=km Length=0.00989073 bus1=p2udt1782lv.1.2 bus2=p2udm6469.1.2 switch=n enabled=y phases=2 Linecode=1P_UG_AL_1/0_Brenau_0_416_0_2_2_2_2

New Line.l(r:p2udt1783lv-p2ulv2015) Units=km Length=0.015605300000000003 bus1=p2udt1783lv.1.2 bus2=p2ulv2015.1.2 switch=n enabled=y phases=2 Linecode=1P_UG_AL_1/0_Brenau_0_416_0_2_2_2_2

New Line.l(r:p2udm6471-p2ulv4705) Units=km Length=0.0142725 bus1=p2udm6471.1.2 bus2=p2ulv4705.1.2 switch=n enabled=y phases=2 Linecode=1P_UG_AL_1/0_Brenau_0_416_0_2_2_2_2

New Line.l(r:p2udm6471-p2ulv5407) Units=km Length=0.0158821 bus1=p2udm6471.1.2 bus2=p2ulv5407.1.2 switch=n enabled=y phases=2 Linecode=1P_UG_AL_1/0_Brenau_0_416_0_2_2_2_2

New Line.l(r:p2udm6475-p2ulv23890) Units=km Length=0.014531 bus1=p2udm6475.1.2 bus2=p2ulv23890.1.2 switch=n enabled=y phases=2 Linecode=1P_UG_AL_1/0_Brenau_0_416_0_2_2_2_2

New Line.l(r:p2udm6471-p2udm6475) Units=km Length=0.009224670000000003 bus1=p2udm6471.1.2 bus2=p2udm6475.1.2 switch=n enabled=y phases=2 Linecode=1P_UG_AL_1/0_Brenau_0_416_0_2_2_2_2

New Line.l(r:p2udm6471-p2udt1783lv) Units=km Length=0.009224670000000003 bus1=p2udt1783lv.1.2 bus2=p2udm6471.1.2 switch=n enabled=y phases=2 Linecode=1P_UG_AL_4/0_Sweetbriar_0_416_0_2_2_2_2

New Line.l(r:p2udm6473-p2ulv15737) Units=km Length=0.0138261 bus1=p2udm6473.1.2 bus2=p2ulv15737.1.2 switch=n enabled=y phases=2 Linecode=1P_OH_AL_2/0_Rucina_0_416_0_2_2_2_2

New Line.l(r:p2udm6474-p2ulv23431) Units=km Length=0.0148189 bus1=p2udm6474.1.2 bus2=p2ulv23431.1.2 switch=n enabled=y phases=2 Linecode=1P_OH_AL_2/0_Rucina_0_416_0_2_2_2_2

New Line.l(r:p2udm6473-p2udm6474) Units=km Length=0.0243774 bus1=p2udm6473.1.2 bus2=p2udm6474.1.2 switch=n enabled=y phases=2 Linecode=1P_OH_AL_2/0_Rucina_0_416_0_2_2_2_2

New Line.l(r:p2udm6473-p2udt1783lv) Units=km Length=0.0189708 bus1=p2udt1783lv.1.2 bus2=p2udm6473.1.2 switch=n enabled=y phases=2 Linecode=1P_OH_AL_2/0_Rucina_0_416_0_2_2_2_2

New Line.l(r:p2udt1978lv-p2ulv2264) Units=km Length=0.0204642 bus1=p2udt1978lv.1.2 bus2=p2ulv2264.1.2 switch=n enabled=y phases=2 Linecode=1P_UG_AL_1/0_Brenau_0_416_0_2_2_2_2

New Line.l(r:p2udt1978lv-p2ulv3971) Units=km Length=0.023406600000000003 bus1=p2udt1978lv.1.2 bus2=p2ulv3971.1.2 switch=n enabled=y phases=2 Linecode=1P_UG_AL_1/0_Brenau_0_416_0_2_2_2_2

New Line.l(r:p2udt1978lv-p2ulv24115) Units=km Length=0.0214574 bus1=p2udt1978lv.1.2 bus2=p2ulv24115.1.2 switch=n enabled=y phases=2 Linecode=1P_UG_AL_1/0_Brenau_0_416_0_2_2_2_2

New Line.l(r:p2udm7159-p2ulv2778) Units=km Length=0.0193305 bus1=p2udm7159.1.2 bus2=p2ulv2778.1.2 switch=n enabled=y phases=2 Linecode=1P_UG_AL_1/0_Brenau_0_416_0_2_2_2_2

New Line.l(r:p2udm7159-p2udt1978lv) Units=km Length=0.00950884 bus1=p2udt1978lv.1.2 bus2=p2udm7159.1.2 switch=n enabled=y phases=2 Linecode=1P_UG_AL_1/0_Brenau_0_416_0_2_2_2_2

New Line.l(r:p2udt1979lv-p2ulv2265) Units=km Length=0.0148025 bus1=p2udt1979lv.1.2 bus2=p2ulv2265.1.2 switch=n enabled=y phases=2 Linecode=1P_UG_AL_1/0_Brenau_0_416_0_2_2_2_2

New Line.l(r:p2udt1979lv-p2ulv21868) Units=km Length=0.0112445 bus1=p2udt1979lv.1.2 bus2=p2ulv21868.1.2 switch=n enabled=y phases=2 Linecode=1P_UG_AL_1/0_Brenau_0_416_0_2_2_2_2

New Line.l(r:p2udm7163-p2ulv2268) Units=km Length=0.0101534 bus1=p2udm7163.1.2 bus2=p2ulv2268.1.2 switch=n enabled=y phases=2 Linecode=1P_UG_AL_1/0_Brenau_0_416_0_2_2_2_2

New Line.l(r:p2udm7163-p2udt1979lv) Units=km Length=0.00925827 bus1=p2udt1979lv.1.2 bus2=p2udm7163.1.2 switch=n enabled=y phases=2 Linecode=1P_UG_AL_1/0_Brenau_0_416_0_2_2_2_2

New Line.l(r:p2udm7164-p2ulv6413) Units=km Length=0.0130676 bus1=p2udm7164.1.2 bus2=p2ulv6413.1.2 switch=n enabled=y phases=2 Linecode=1P_UG_AL_1/0_Brenau_0_416_0_2_2_2_2

New Line.l(r:p2udm7164-p2ulv24116) Units=km Length=0.0116004 bus1=p2udm7164.1.2 bus2=p2ulv24116.1.2 switch=n enabled=y phases=2 Linecode=1P_UG_AL_1/0_Brenau_0_416_0_2_2_2_2

New Line.l(r:p2udm7164-p2udt1979lv) Units=km Length=0.00926331 bus1=p2udt1979lv.1.2 bus2=p2udm7164.1.2 switch=n enabled=y phases=2 Linecode=1P_UG_AL_4/0_Sweetbriar_0_416_0_2_2_2_2

New Line.l(r:p2udm7167-p2ulv2266) Units=km Length=0.0188281 bus1=p2udm7167.1.2 bus2=p2ulv2266.1.2 switch=n enabled=y phases=2 Linecode=1P_UG_AL_1/0_Brenau_0_416_0_2_2_2_2

New Line.l(r:p2udm7167-p2ulv12541) Units=km Length=0.0117489 bus1=p2udm7167.1.2 bus2=p2ulv12541.1.2 switch=n enabled=y phases=2 Linecode=1P_UG_AL_1/0_Brenau_0_416_0_2_2_2_2

New Line.l(r:p2udm7170-p2ulv13026) Units=km Length=0.0212505 bus1=p2udm7170.1.2 bus2=p2ulv13026.1.2 switch=n enabled=y phases=2 Linecode=1P_UG_AL_1/0_Brenau_0_416_0_2_2_2_2

New Line.l(r:p2udm7167-p2udm7170) Units=km Length=0.0097949 bus1=p2udm7167.1.2 bus2=p2udm7170.1.2 switch=n enabled=y phases=2 Linecode=1P_UG_AL_1/0_Brenau_0_416_0_2_2_2_2

New Line.l(r:p2udm7167-p2udt1980lv) Units=km Length=0.0097949 bus1=p2udt1980lv.1.2 bus2=p2udm7167.1.2 switch=n enabled=y phases=2 Linecode=1P_UG_AL_4/0_Sweetbriar_0_416_0_2_2_2_2

New Line.l(r:p2udm7168-p2ulv2781) Units=km Length=0.0138491 bus1=p2udm7168.1.2 bus2=p2ulv2781.1.2 switch=n enabled=y phases=2 Linecode=1P_UG_AL_1/0_Brenau_0_416_0_2_2_2_2

New Line.l(r:p2udm7168-p2ulv21166) Units=km Length=0.013194700000000002 bus1=p2udm7168.1.2 bus2=p2ulv21166.1.2 switch=n enabled=y phases=2 Linecode=1P_UG_AL_1/0_Brenau_0_416_0_2_2_2_2

New Line.l(r:p2udm7168-p2udt1980lv) Units=km Length=0.00979919 bus1=p2udt1980lv.1.2 bus2=p2udm7168.1.2 switch=n enabled=y phases=2 Linecode=1P_UG_AL_4/0_Sweetbriar_0_416_0_2_2_2_2

New Line.l(r:p2udt1981lv-p2ulv2267) Units=km Length=0.013203700000000002 bus1=p2udt1981lv.1.2 bus2=p2ulv2267.1.2 switch=n enabled=y phases=2 Linecode=1P_UG_AL_1/0_Brenau_0_416_0_2_2_2_2

New Line.l(r:p2udt1981lv-p2ulv4709) Units=km Length=0.011660700000000001 bus1=p2udt1981lv.1.2 bus2=p2ulv4709.1.2 switch=n enabled=y phases=2 Linecode=1P_UG_AL_1/0_Brenau_0_416_0_2_2_2_2

New Line.l(r:p2udm7174-p2ulv21646) Units=km Length=0.0124148 bus1=p2udm7174.1.2 bus2=p2ulv21646.1.2 switch=n enabled=y phases=2 Linecode=1P_UG_AL_1/0_Brenau_0_416_0_2_2_2_2

New Line.l(r:p2udm7174-p2udt1981lv) Units=km Length=0.0097949 bus1=p2udt1981lv.1.2 bus2=p2udm7174.1.2 switch=n enabled=y phases=2 Linecode=1P_UG_AL_1/0_Brenau_0_416_0_2_2_2_2

New Line.l(r:p2udt2151lv-p2ulv13497) Units=km Length=0.0145914 bus1=p2udt2151lv.1.2 bus2=p2ulv13497.1.2 switch=n enabled=y phases=2 Linecode=1P_UG_AL_1/0_Brenau_0_416_0_2_2_2_2

New Line.l(r:p2udt2151lv-p2ulv18034) Units=km Length=0.0153374 bus1=p2udt2151lv.1.2 bus2=p2ulv18034.1.2 switch=n enabled=y phases=2 Linecode=1P_UG_AL_1/0_Brenau_0_416_0_2_2_2_2

New Line.l(r:p2udm7726-p2ulv2514) Units=km Length=0.0153849 bus1=p2udm7726.1.2 bus2=p2ulv2514.1.2 switch=n enabled=y phases=2 Linecode=1P_UG_AL_1/0_Brenau_0_416_0_2_2_2_2

New Line.l(r:p2udm7728-p2ulv8981) Units=km Length=0.0112033 bus1=p2udm7728.1.2 bus2=p2ulv8981.1.2 switch=n enabled=y phases=2 Linecode=1P_UG_AL_1/0_Brenau_0_416_0_2_2_2_2

New Line.l(r:p2udm7726-p2udm7728) Units=km Length=0.0616949 bus1=p2udm7726.1.2 bus2=p2udm7728.1.2 switch=n enabled=y phases=2 Linecode=1P_UG_AL_1/0_Brenau_0_416_0_2_2_2_2
