New Line.l(r:p3udt130lv-p3ulv275) Units=km Length=0.0239785 bus1=p3udt130lv.1.2 bus2=p3ulv275.1.2 switch=n enabled=y phases=2 Linecode=1P_OH_AL_2/0_Rucina_0_416_0_2_2_2_2

New Line.l(r:p3udt131lv-p3ulv276) Units=km Length=0.0711247 bus1=p3udt131lv.1.2 bus2=p3ulv276.1.2 switch=n enabled=y phases=2 Linecode=1P_UG_AL_1/0_Brenau_0_416_0_2_2_2_2

New Line.l(r:p3udt131lv-p3ulv49404) Units=km Length=0.0496655 bus1=p3udt131lv.1.2 bus2=p3ulv49404.1.2 switch=n enabled=y phases=2 Linecode=1P_UG_AL_1/0_Brenau_0_416_0_2_2_2_2

New Line.l(r:p3udt866lv-p3ulv15186) Units=km Length=0.0427489 bus1=p3udt866lv.1.2 bus2=p3ulv15186.1.2 switch=n enabled=y phases=2 Linecode=1P_OH_AL_4/0_Zuzara_0_416_0_2_2_2_2

New Line.l(r:p3udm2989-p3ulv1025) Units=km Length=0.0553338 bus1=p3udm2989.1.2 bus2=p3ulv1025.1.2 switch=n enabled=y phases=2 Linecode=1P_OH_AL_4/0_Zuzara_0_416_0_2_2_2_2

New Line.l(r:p3udm2989-p3udt866lv) Units=km Length=0.0192193 bus1=p3udt866lv.1.2 bus2=p3udm2989.1.2 switch=n enabled=y phases=2 Linecode=1P_OH_AL_2/0_Rucina_0_416_0_2_2_2_2

New Line.l(r:p3udt867lv-p3ulv14403) Units=km Length=0.027276900000000003 bus1=p3udt867lv.1.2 bus2=p3ulv14403.1.2 switch=n enabled=y phases=2 Linecode=1P_OH_AL_4/0_Zuzara_0_416_0_2_2_2_2

New Line.l(r:p3udm2991-p3ulv1026) Units=km Length=0.0287789 bus1=p3udm2991.1.2 bus2=p3ulv1026.1.2 switch=n enabled=y phases=2 Linecode=1P_OH_AL_4/0_Zuzara_0_416_0_2_2_2_2

New Line.l(r:p3udm2991-p3udt867lv) Units=km Length=0.0191677 bus1=p3udt867lv.1.2 bus2=p3udm2991.1.2 switch=n enabled=y phases=2 Linecode=1P_OH_AL_2/0_Rucina_0_416_0_2_2_2_2

New Line.l(r:p3udm3000-p3ulv1030) Units=km Length=0.015486000000000002 bus1=p3udm3000.1.2 bus2=p3ulv1030.1.2 switch=n enabled=y phases=2 Linecode=1P_OH_AL_2/0_Rucina_0_416_0_2_2_2_2

New Line.l(r:p3udm3000-p3ulv7398) Units=km Length=0.0195925 bus1=p3udm3000.1.2 bus2=p3ulv7398.1.2 switch=n enabled=y phases=2 Linecode=1P_OH_AL_2/0_Rucina_0_416_0_2_2_2_2

New Line.l(r:p3udm3000-p3udt871lv) Units=km Length=0.0345321 bus1=p3udt871lv.1.2 bus2=p3udm3000.1.2 switch=n enabled=y phases=2 Linecode=1P_OH_AL_4/0_Zuzara_0_416_0_2_2_2_2

New Line.l(r:p3udm3002-p3ulv60058) Units=km Length=0.0234418 bus1=p3udm3002.1.2 bus2=p3ulv60058.1.2 switch=n enabled=y phases=2 Linecode=1P_OH_AL_2/0_Rucina_0_416_0_2_2_2_2

New Line.l(r:p3udm3002-p3udt871lv) Units=km Length=0.0710612 bus1=p3udt871lv.1.2 bus2=p3udm3002.1.2 switch=n enabled=y phases=2 Linecode=1P_OH_AL_4/0_Zuzara_0_416_0_2_2_2_2

New Line.l(r:p3udt874lv-p3ulv1033) Units=km Length=0.07319350000000001 bus1=p3udt874lv.1.2 bus2=p3ulv1033.1.2 switch=n enabled=y phases=2 Linecode=1P_OH_AL_4/0_Zuzara_0_416_0_2_2_2_2

New Line.l(r:p3udm3007-p3ulv1034) Units=km Length=0.0634123 bus1=p3udm3007.1.2 bus2=p3ulv1034.1.2 switch=n enabled=y phases=2 Linecode=1P_OH_AL_4/0_Zuzara_0_416_0_2_2_2_2

New Line.l(r:p3udm3007-p3ulv22961) Units=km Length=0.023836700000000002 bus1=p3udm3007.1.2 bus2=p3ulv22961.1.2 switch=n enabled=y phases=2 Linecode=1P_OH_AL_2/0_Rucina_0_416_0_2_2_2_2

New Line.l(r:p3udm3010-p3ulv53985) Units=km Length=0.05145280000000001 bus1=p3udm3010.1.2 bus2=p3ulv53985.1.2 switch=n enabled=y phases=2 Linecode=1P_OH_AL_4/0_Zuzara_0_416_0_2_2_2_2

New Line.l(r:p3udm3007-p3udm3010) Units=km Length=0.0182193 bus1=p3udm3007.1.2 bus2=p3udm3010.1.2 switch=n enabled=y phases=2 Linecode=1P_OH_AL_2/0_Rucina_0_416_0_2_2_2_2

New Line.l(r:p3udm3007-p3udt875lv) Units=km Length=0.0182301 bus1=p3udt875lv.1.2 bus2=p3udm3007.1.2 switch=n enabled=y phases=2 Linecode=1P_OH_AL_2/0_Rucina_0_416_0_2_2_2_2

New Line.l(r:p3udm3011-p3ulv71632) Units=km Length=0.0423754 bus1=p3udm3011.1.2 bus2=p3ulv71632.1.2 switch=n enabled=y phases=2 Linecode=1P_OH_AL_4/0_Zuzara_0_416_0_2_2_2_2

New Line.l(r:p3udm3008-p3ulv9682) Units=km Length=0.0237474 bus1=p3udm3008.1.2 bus2=p3ulv9682.1.2 switch=n enabled=y phases=2 Linecode=1P_OH_AL_2/0_Rucina_0_416_0_2_2_2_2

New Line.l(r:p3udm3008-p3udm3011) Units=km Length=0.0267687 bus1=p3udm3011.1.2 bus2=p3udm3008.1.2 switch=n enabled=y phases=2 Linecode=1P_OH_AL_2/0_Rucina_0_416_0_2_2_2_2

New Line.l(r:p3udm3011-p3udt875lv) Units=km Length=0.0182193 bus1=p3udt875lv.1.2 bus2=p3udm3011.1.2 switch=n enabled=y phases=2 Linecode=1P_OH_AL_2/0_Rucina_0_416_0_2_2_2_2

New Line.l(r:p3udm3012-p3ulv1035) Units=km Length=0.0265319 bus1=p3udm3012.1.2 bus2=p3ulv1035.1.2 switch=n enabled=y phases=2 Linecode=1P_UG_AL_1/0_Brenau_0_416_0_2_2_2_2

New Line.l(r:p3udm3012-p3udt876lv) Units=km Length=0.0803248 bus1=p3udt876lv.1.2 bus2=p3udm3012.1.2 switch=n enabled=y phases=2 Linecode=1P_UG_AL_1/0_Brenau_0_416_0_2_2_2_2

New Line.l(r:p3udm3013-p3ulv17546) Units=km Length=0.0227023 bus1=p3udm3013.1.2 bus2=p3ulv17546.1.2 switch=n enabled=y phases=2 Linecode=1P_UG_AL_1/0_Brenau_0_416_0_2_2_2_2

New Line.l(r:p3udm3013-p3udt876lv) Units=km Length=0.00998439 bus1=p3udt876lv.1.2 bus2=p3udm3013.1.2 switch=n enabled=y phases=2 Linecode=1P_UG_AL_1/0_Brenau_0_416_0_2_2_2_2

New Line.l(r:p3udt877lv-p3ulv1036) Units=km Length=0.0541362 bus1=p3udt877lv.1.2 bus2=p3ulv1036.1.2 switch=n enabled=y phases=2 Linecode=1P_UG_AL_1/0_Brenau_0_416_0_2_2_2_2

New Line.l(r:p3udm3015-p3ulv19846) Units=km Length=0.0228437 bus1=p3udm3015.1.2 bus2=p3ulv19846.1.2 switch=n enabled=y phases=2 Linecode=1P_UG_AL_1/0_Brenau_0_416_0_2_2_2_2

New Line.l(r:p3udm3015-p3udt877lv) Units=km Length=0.009816220000000002 bus1=p3udt877lv.1.2 bus2=p3udm3015.1.2 switch=n enabled=y phases=2 Linecode=1P_UG_AL_1/0_Brenau_0_416_0_2_2_2_2

New Line.l(r:p3udt878lv-p3ulv1037) Units=km Length=0.108711 bus1=p3udt878lv.1.2 bus2=p3ulv1037.1.2 switch=n enabled=y phases=2 Linecode=1P_OH_AL_4/0_Zuzara_0_416_0_2_2_2_2

New Line.l(r:p3udt878lv-p3ulv53240) Units=km Length=0.0442588 bus1=p3udt878lv.1.2 bus2=p3ulv53240.1.2 switch=n enabled=y phases=2 Linecode=1P_OH_AL_4/0_Zuzara_0_416_0_2_2_2_2

New Line.l(r:p3udt879lv-p3ulv62387) Units=km Length=0.113436 bus1=p3udt879lv.1.2 bus2=p3ulv62387.1.2 switch=n enabled=y phases=2 Linecode=1P_UG_AL_1/0_Brenau_0_416_0_2_2_2_2

New Line.l(r:p3udm3018-p3ulv1038) Units=km Length=0.11721900000000002 bus1=p3udm3018.1.2 bus2=p3ulv1038.1.2 switch=n enabled=y phases=2 Linecode=1P_UG_AL_1/0_Brenau_0_416_0_2_2_2_2

New Line.l(r:p3udm3018-p3ulv12843) Units=km Length=0.0614749 bus1=p3udm3018.1.2 bus2=p3ulv12843.1.2 switch=n enabled=y phases=2 Linecode=1P_UG_AL_1/0_Brenau_0_416_0_2_2_2_2

New Line.l(r:p3udm3018-p3udt879lv) Units=km Length=0.019631100000000002 bus1=p3udt879lv.1.2 bus2=p3udm3018.1.2 switch=n enabled=y phases=2 Linecode=1P_UG_AL_4/0_Sweetbriar_0_416_0_2_2_2_2

New Line.l(r:p3udm3020-p3ulv35491) Units=km Length=0.107243 bus1=p3udm3020.1.2 bus2=p3ulv35491.1.2 switch=n enabled=y phases=2 Linecode=1P_UG_AL_1/0_Brenau_0_416_0_2_2_2_2

New Line.l(r:p3udm3020-p3udt879lv) Units=km Length=0.0294387 bus1=p3udt879lv.1.2 bus2=p3udm3020.1.2 switch=n enabled=y phases=2 Linecode=1P_UG_AL_1/0_Brenau_0_416_0_2_2_2_2

New Line.l(r:p3udt1616lv-p3ulv1802) Units=km Length=0.04442440000000001 bus1=p3udt1616lv.1.2 bus2=p3ulv1802.1.2 switch=n enabled=y phases=2 Linecode=1P_OH_AL_4/0_Zuzara_0_416_0_2_2_2_2

New Line.l(r:p3udt1616lv-p3ulv28470) Units=km Length=0.00492444 bus1=p3udt1616lv.1.2 bus2=p3ulv28470.1.2 switch=n enabled=y phases=2 Linecode=1P_OH_AL_2/0_Rucina_0_416_0_2_2_2_2

New Line.l(r:p3udt1616lv-p3ulv68544) Units=km Length=0.0395032 bus1=p3udt1616lv.1.2 bus2=p3ulv68544.1.2 switch=n enabled=y phases=2 Linecode=1P_OH_AL_4/0_Zuzara_0_416_0_2_2_2_2

New Line.l(r:p3udt1619lv-p3ulv1805) Units=km Length=0.005165900000000001 bus1=p3udt1619lv.1.2 bus2=p3ulv1805.1.2 switch=n enabled=y phases=2 Linecode=1P_OH_AL_2/0_Rucina_0_416_0_2_2_2_2

New Line.l(r:p3udt1619lv-p3ulv43962) Units=km Length=0.005165900000000001 bus1=p3udt1619lv.1.2 bus2=p3ulv43962.1.2 switch=n enabled=y phases=2 Linecode=1P_OH_AL_2/0_Rucina_0_416_0_2_2_2_2

New Line.l(r:p3udm5628-p3ulv1806) Units=km Length=0.0101039 bus1=p3udm5628.1.2 bus2=p3ulv1806.1.2 switch=n enabled=y phases=2 Linecode=1P_OH_AL_2/0_Rucina_0_416_0_2_2_2_2

New Line.l(r:p3udm5628-p3udt1620lv) Units=km Length=0.0320265 bus1=p3udt1620lv.1.2 bus2=p3udm5628.1.2 switch=n enabled=y phases=2 Linecode=1P_OH_AL_4/0_Zuzara_0_416_0_2_2_2_2

New Line.l(r:p3udm5629-p3ulv29217) Units=km Length=0.0501562 bus1=p3udm5629.1.2 bus2=p3ulv29217.1.2 switch=n enabled=y phases=2 Linecode=1P_OH_AL_4/0_Zuzara_0_416_0_2_2_2_2

New Line.l(r:p3udm5629-p3udt1620lv) Units=km Length=0.0312813 bus1=p3udt1620lv.1.2 bus2=p3udm5629.1.2 switch=n enabled=y phases=2 Linecode=1P_OH_AL_4/0_Zuzara_0_416_0_2_2_2_2

New Line.l(r:p3udt1624lv-p3ulv1810) Units=km Length=0.00802375 bus1=p3udt1624lv.1.2 bus2=p3ulv1810.1.2 switch=n enabled=y phases=2 Linecode=1P_OH_AL_2/0_Rucina_0_416_0_2_2_2_2

New Line.l(r:p3udt1624lv-p3ulv4973) Units=km Length=0.00771421 bus1=p3udt1624lv.1.2 bus2=p3ulv4973.1.2 switch=n enabled=y phases=2 Linecode=1P_OH_AL_2/0_Rucina_0_416_0_2_2_2_2

New Line.l(r:p3udt1624lv-p3ulv43963) Units=km Length=0.0178904 bus1=p3udt1624lv.1.2 bus2=p3ulv43963.1.2 switch=n enabled=y phases=2 Linecode=1P_OH_AL_2/0_Rucina_0_416_0_2_2_2_2

New Line.l(r:p3udm5639-p3ulv16002) Units=km Length=0.00997307 bus1=p3udm5639.1.2 bus2=p3ulv16002.1.2 switch=n enabled=y phases=2 Linecode=1P_OH_AL_2/0_Rucina_0_416_0_2_2_2_2

New Line.l(r:p3udm5639-p3udt1624lv) Units=km Length=0.0392578 bus1=p3udt1624lv.1.2 bus2=p3udm5639.1.2 switch=n enabled=y phases=2 Linecode=1P_OH_AL_4/0_Zuzara_0_416_0_2_2_2_2

New Line.l(r:p3udm5640-p3ulv33167) Units=km Length=0.0163814 bus1=p3udm5640.1.2 bus2=p3ulv33167.1.2 switch=n enabled=y phases=2 Linecode=1P_OH_AL_2/0_Rucina_0_416_0_2_2_2_2

New Line.l(r:p3udm5640-p3ulv42404) Units=km Length=0.00865009 bus1=p3udm5640.1.2 bus2=p3ulv42404.1.2 switch=n enabled=y phases=2 Linecode=1P_OH_AL_2/0_Rucina_0_416_0_2_2_2_2

New Line.l(r:p3udm5640-p3ulv43195) Units=km Length=0.0183178 bus1=p3udm5640.1.2 bus2=p3ulv43195.1.2 switch=n enabled=y phases=2 Linecode=1P_OH_AL_2/0_Rucina_0_416_0_2_2_2_2

New Line.l(r:p3udm5640-p3ulv63158) Units=km Length=0.0156541 bus1=p3udm5640.1.2 bus2=p3ulv63158.1.2 switch=n enabled=y phases=2 Linecode=1P_OH_AL_2/0_Rucina_0_416_0_2_2_2_2

New Line.l(r:p3udm5640-p3udt1624lv) Units=km Length=0.018249100000000004 bus1=p3udt1624lv.1.2 bus2=p3udm5640.1.2 switch=n enabled=y phases=2 Linecode=1P_OH_AL_2/0_Rucina_0_416_0_2_2_2_2

New Line.l(r:p3udt1625lv-p3ulv32391) Units=km Length=0.011102800000000001 bus1=p3udt1625lv.1.2 bus2=p3ulv32391.1.2 switch=n enabled=y phases=2 Linecode=1P_UG_AL_1/0_Brenau_0_416_0_2_2_2_2

New Line.l(r:p3udm5645-p3ulv1811) Units=km Length=0.013378900000000003 bus1=p3udm5645.1.2 bus2=p3ulv1811.1.2 switch=n enabled=y phases=2 Linecode=1P_UG_AL_1/0_Brenau_0_416_0_2_2_2_2

New Line.l(r:p3udm5645-p3udt1625lv) Units=km Length=0.0187439 bus1=p3udt1625lv.1.2 bus2=p3udm5645.1.2 switch=n enabled=y phases=2 Linecode=1P_UG_AL_1/0_Brenau_0_416_0_2_2_2_2

New Line.l(r:p3udm5646-p3ulv24596) Units=km Length=0.0159722 bus1=p3udm5646.1.2 bus2=p3ulv24596.1.2 switch=n enabled=y phases=2 Linecode=1P_UG_AL_1/0_Brenau_0_416_0_2_2_2_2

New Line.l(r:p3udm5648-p3ulv38472) Units=km Length=0.0153153 bus1=p3udm5648.1.2 bus2=p3ulv38472.1.2 switch=n enabled=y phases=2 Linecode=1P_UG_AL_1/0_Brenau_0_416_0_2_2_2_2

New Line.l(r:p3udm5646-p3udm5648) Units=km Length=0.00936959 bus1=p3udm5646.1.2 bus2=p3udm5648.1.2 switch=n enabled=y phases=2 Linecode=1P_UG_AL_1/0_Brenau_0_416_0_2_2_2_2

New Line.l(r:p3udm5646-p3udt1625lv) Units=km Length=0.00936959 bus1=p3udt1625lv.1.2 bus2=p3udm5646.1.2 switch=n enabled=y phases=2 Linecode=1P_UG_AL_4/0_Sweetbriar_0_416_0_2_2_2_2

New Line.l(r:p3udt1626lv-p3ulv31564) Units=km Length=0.0377299 bus1=p3udt1626lv.1.2 bus2=p3ulv31564.1.2 switch=n enabled=y phases=2 Linecode=1P_OH_AL_4/0_Zuzara_0_416_0_2_2_2_2

New Line.l(r:p3udm5649-p3ulv1812) Units=km Length=0.025354100000000004 bus1=p3udm5649.1.2 bus2=p3ulv1812.1.2 switch=n enabled=y phases=2 Linecode=1P_OH_AL_2/0_Rucina_0_416_0_2_2_2_2

New Line.l(r:p3udm5649-p3udt1626lv) Units=km Length=0.0170421 bus1=p3udt1626lv.1.2 bus2=p3udm5649.1.2 switch=n enabled=y phases=2 Linecode=1P_OH_AL_2/0_Rucina_0_416_0_2_2_2_2

New Line.l(r:p3udm5652-p3ulv1814) Units=km Length=0.0342982 bus1=p3udm5652.1.2 bus2=p3ulv1814.1.2 switch=n enabled=y phases=2 Linecode=1P_OH_AL_4/0_Zuzara_0_416_0_2_2_2_2

New Line.l(r:p3udm5652-p3udt1628lv) Units=km Length=0.0187107 bus1=p3udt1628lv.1.2 bus2=p3udm5652.1.2 switch=n enabled=y phases=2 Linecode=1P_OH_AL_2/0_Rucina_0_416_0_2_2_2_2

New Line.l(r:p3udm5653-p3ulv19842) Units=km Length=0.0446469 bus1=p3udm5653.1.2 bus2=p3ulv19842.1.2 switch=n enabled=y phases=2 Linecode=1P_OH_AL_4/0_Zuzara_0_416_0_2_2_2_2

New Line.l(r:p3udm5653-p3udt1628lv) Units=km Length=0.0186974 bus1=p3udt1628lv.1.2 bus2=p3udm5653.1.2 switch=n enabled=y phases=2 Linecode=1P_OH_AL_2/0_Rucina_0_416_0_2_2_2_2

New Line.l(r:p3udt1631lv-p3ulv51660) Units=km Length=0.0527715 bus1=p3udt1631lv.1.2 bus2=p3ulv51660.1.2 switch=n enabled=y phases=2 Linecode=1P_OH_AL_4/0_Zuzara_0_416_0_2_2_2_2

New Line.l(r:p3udm5658-p3ulv1817) Units=km Length=0.051016 bus1=p3udm5658.1.2 bus2=p3ulv1817.1.2 switch=n enabled=y phases=2 Linecode=1P_OH_AL_4/0_Zuzara_0_416_0_2_2_2_2

New Line.l(r:p3udm5658-p3udt1631lv) Units=km Length=0.0194532 bus1=p3udt1631lv.1.2 bus2=p3udm5658.1.2 switch=n enabled=y phases=2 Linecode=1P_OH_AL_2/0_Rucina_0_416_0_2_2_2_2

New Line.l(r:p3udt1632lv-p3ulv1818) Units=km Length=0.03224160000000001 bus1=p3udt1632lv.1.2 bus2=p3ulv1818.1.2 switch=n enabled=y phases=2 Linecode=1P_OH_AL_4/0_Zuzara_0_416_0_2_2_2_2

New Line.l(r:p3udt1632lv-p3ulv2611) Units=km Length=0.0316122 bus1=p3udt1632lv.1.2 bus2=p3ulv2611.1.2 switch=n enabled=y phases=2 Linecode=1P_OH_AL_4/0_Zuzara_0_416_0_2_2_2_2

New Line.l(r:p3udt1632lv-p3ulv8957) Units=km Length=0.0417112 bus1=p3udt1632lv.1.2 bus2=p3ulv8957.1.2 switch=n enabled=y phases=2 Linecode=1P_OH_AL_4/0_Zuzara_0_416_0_2_2_2_2

New Line.l(r:p3udt1632lv-p3ulv37715) Units=km Length=0.0434196 bus1=p3udt1632lv.1.2 bus2=p3ulv37715.1.2 switch=n enabled=y phases=2 Linecode=1P_OH_AL_4/0_Zuzara_0_416_0_2_2_2_2

New Line.l(r:p3udt1632lv-p3ulv50156) Units=km Length=0.0198515 bus1=p3udt1632lv.1.2 bus2=p3ulv50156.1.2 switch=n enabled=y phases=2 Linecode=1P_OH_AL_2/0_Rucina_0_416_0_2_2_2_2

New Line.l(r:p3udt1632lv-p3ulv52456) Units=km Length=0.0206769 bus1=p3udt1632lv.1.2 bus2=p3ulv52456.1.2 switch=n enabled=y phases=2 Linecode=1P_OH_AL_2/0_Rucina_0_416_0_2_2_2_2

New Line.l(r:p3udt1632lv-p3ulv68558) Units=km Length=0.00965632 bus1=p3udt1632lv.1.2 bus2=p3ulv68558.1.2 switch=n enabled=y phases=2 Linecode=1P_OH_AL_2/0_Rucina_0_416_0_2_2_2_2

New Line.l(r:p3udm5669-p3ulv1821) Units=km Length=0.0307679 bus1=p3udm5669.1.2 bus2=p3ulv1821.1.2 switch=n enabled=y phases=2 Linecode=1P_UG_AL_1/0_Brenau_0_416_0_2_2_2_2

New Line.l(r:p3udm5669-p3udt1635lv) Units=km Length=0.0198697 bus1=p3udt1635lv.1.2 bus2=p3udm5669.1.2 switch=n enabled=y phases=2 Linecode=1P_UG_AL_1/0_Brenau_0_416_0_2_2_2_2

New Line.l(r:p3udm5670-p3ulv5808) Units=km Length=0.0399216 bus1=p3udm5670.1.2 bus2=p3ulv5808.1.2 switch=n enabled=y phases=2 Linecode=1P_UG_AL_1/0_Brenau_0_416_0_2_2_2_2

New Line.l(r:p3udm5670-p3udt1635lv) Units=km Length=0.0198697 bus1=p3udt1635lv.1.2 bus2=p3udm5670.1.2 switch=n enabled=y phases=2 Linecode=1P_UG_AL_1/0_Brenau_0_416_0_2_2_2_2

New Line.l(r:p3udt1641lv-p3ulv1827) Units=km Length=0.10165100000000002 bus1=p3udt1641lv.1.2 bus2=p3ulv1827.1.2 switch=n enabled=y phases=2 Linecode=1P_OH_AL_4/0_Zuzara_0_416_0_2_2_2_2

New Line.l(r:p3udt1641lv-p3ulv10493) Units=km Length=0.0504533 bus1=p3udt1641lv.1.2 bus2=p3ulv10493.1.2 switch=n enabled=y phases=2 Linecode=1P_OH_AL_4/0_Zuzara_0_416_0_2_2_2_2

New Line.l(r:p3udm5681-p3ulv32401) Units=km Length=0.0414367 bus1=p3udm5681.1.2 bus2=p3ulv32401.1.2 switch=n enabled=y phases=2 Linecode=1P_OH_AL_4/0_Zuzara_0_416_0_2_2_2_2

New Line.l(r:p3udm5681-p3udt1641lv) Units=km Length=0.00858987 bus1=p3udt1641lv.1.2 bus2=p3udm5681.1.2 switch=n enabled=y phases=2 Linecode=1P_OH_AL_2/0_Rucina_0_416_0_2_2_2_2

New Line.l(r:p3udt1701lv-p3ulv1892) Units=km Length=0.0655985 bus1=p3udt1701lv.1.2 bus2=p3ulv1892.1.2 switch=n enabled=y phases=2 Linecode=1P_OH_AL_4/0_Zuzara_0_416_0_2_2_2_2

New Line.l(r:p3udt1701lv-p3ulv33246) Units=km Length=0.09549060000000001 bus1=p3udt1701lv.1.2 bus2=p3ulv33246.1.2 switch=n enabled=y phases=2 Linecode=1P_OH_AL_4/0_Zuzara_0_416_0_2_2_2_2

New Line.l(r:p3udt2349lv-p3ulv2594) Units=km Length=0.0273038 bus1=p3udt2349lv.1.2 bus2=p3ulv2594.1.2 switch=n enabled=y phases=2 Linecode=1P_OH_AL_4/0_Zuzara_0_416_0_2_2_2_2

New Line.l(r:p3udt2350lv-p3ulv39258) Units=km Length=0.0800541 bus1=p3udt2350lv.1.2 bus2=p3ulv39258.1.2 switch=n enabled=y phases=2 Linecode=1P_OH_AL_4/0_Zuzara_0_416_0_2_2_2_2

New Line.l(r:p3udt2350lv-p3ulv73907) Units=km Length=0.03876600000000001 bus1=p3udt2350lv.1.2 bus2=p3ulv73907.1.2 switch=n enabled=y phases=2 Linecode=1P_OH_AL_4/0_Zuzara_0_416_0_2_2_2_2

New Line.l(r:p3udm8174-p3ulv2595) Units=km Length=0.11355200000000001 bus1=p3udm8174.1.2 bus2=p3ulv2595.1.2 switch=n enabled=y phases=2 Linecode=1P_OH_AL_4/0_Zuzara_0_416_0_2_2_2_2

New Line.l(r:p3udm8174-p3udt2350lv) Units=km Length=0.0193809 bus1=p3udt2350lv.1.2 bus2=p3udm8174.1.2 switch=n enabled=y phases=2 Linecode=1P_OH_AL_2/0_Rucina_0_416_0_2_2_2_2

New Line.l(r:p3udm8176-p3ulv55510) Units=km Length=0.100464 bus1=p3udm8176.1.2 bus2=p3ulv55510.1.2 switch=n enabled=y phases=2 Linecode=1P_OH_AL_4/0_Zuzara_0_416_0_2_2_2_2

New Line.l(r:p3udm8176-p3udt2350lv) Units=km Length=0.0193949 bus1=p3udt2350lv.1.2 bus2=p3udm8176.1.2 switch=n enabled=y phases=2 Linecode=1P_OH_AL_2/0_Rucina_0_416_0_2_2_2_2

New Line.l(r:p3udt2351lv-p3ulv2596) Units=km Length=0.001 bus1=p3udt2351lv.1.2 bus2=p3ulv2596.1.2 switch=n enabled=y phases=2 Linecode=1P_OH_AL_4_Periwinkle_0_416_0_2_2_2_2

New Line.l(r:p3udt2354lv-p3ulv18309) Units=km Length=0.00721254 bus1=p3udt2354lv.1.2 bus2=p3ulv18309.1.2 switch=n enabled=y phases=2 Linecode=1P_OH_AL_2/0_Rucina_0_416_0_2_2_2_2

New Line.l(r:p3udm8181-p3ulv2599) Units=km Length=0.0212684 bus1=p3udm8181.1.2 bus2=p3ulv2599.1.2 switch=n enabled=y phases=2 Linecode=1P_OH_AL_2/0_Rucina_0_416_0_2_2_2_2

New Line.l(r:p3udm8181-p3udt2354lv) Units=km Length=0.0987929 bus1=p3udt2354lv.1.2 bus2=p3udm8181.1.2 switch=n enabled=y phases=2 Linecode=1P_OH_AL_4/0_Zuzara_0_416_0_2_2_2_2

New Line.l(r:p3udt2355lv-p3ulv2600) Units=km Length=0.091127 bus1=p3udt2355lv.1.2 bus2=p3ulv2600.1.2 switch=n enabled=y phases=2 Linecode=1P_OH_AL_4/0_Zuzara_0_416_0_2_2_2_2

New Line.l(r:p3udt2355lv-p3ulv59345) Units=km Length=0.0764316 bus1=p3udt2355lv.1.2 bus2=p3ulv59345.1.2 switch=n enabled=y phases=2 Linecode=1P_OH_AL_4/0_Zuzara_0_416_0_2_2_2_2

New Line.l(r:p3udm8184-p3ulv39260) Units=km Length=0.0213284 bus1=p3udm8184.1.2 bus2=p3ulv39260.1.2 switch=n enabled=y phases=2 Linecode=1P_OH_AL_2/0_Rucina_0_416_0_2_2_2_2

New Line.l(r:p3udm8184-p3udt2355lv) Units=km Length=0.018895100000000005 bus1=p3udt2355lv.1.2 bus2=p3udm8184.1.2 switch=n enabled=y phases=2 Linecode=1P_OH_AL_2/0_Rucina_0_416_0_2_2_2_2

New Line.l(r:p3udt2358lv-p3ulv2603) Units=km Length=0.0212022 bus1=p3udt2358lv.1.2 bus2=p3ulv2603.1.2 switch=n enabled=y phases=2 Linecode=1P_OH_AL_2/0_Rucina_0_416_0_2_2_2_2

New Line.l(r:p3udm8196-p3ulv2608) Units=km Length=0.029302000000000005 bus1=p3udm8196.1.2 bus2=p3ulv2608.1.2 switch=n enabled=y phases=2 Linecode=1P_OH_AL_4/0_Zuzara_0_416_0_2_2_2_2

New Line.l(r:p3udm8196-p3udt2362lv) Units=km Length=0.0362699 bus1=p3udt2362lv.1.2 bus2=p3udm8196.1.2 switch=n enabled=y phases=2 Linecode=1P_OH_AL_4/0_Zuzara_0_416_0_2_2_2_2

New Line.l(r:p3udm8197-p3ulv52454) Units=km Length=0.0223878 bus1=p3udm8197.1.2 bus2=p3ulv52454.1.2 switch=n enabled=y phases=2 Linecode=1P_OH_AL_2/0_Rucina_0_416_0_2_2_2_2

New Line.l(r:p3udm8197-p3udt2362lv) Units=km Length=0.0546378 bus1=p3udt2362lv.1.2 bus2=p3udm8197.1.2 switch=n enabled=y phases=2 Linecode=1P_OH_AL_4/0_Zuzara_0_416_0_2_2_2_2

New Line.l(r:p3udt2363lv-p3ulv2609) Units=km Length=0.0291397 bus1=p3udt2363lv.1.2 bus2=p3ulv2609.1.2 switch=n enabled=y phases=2 Linecode=1P_OH_AL_4/0_Zuzara_0_416_0_2_2_2_2

New Line.l(r:p3udt2363lv-p3ulv22960) Units=km Length=0.0616031 bus1=p3udt2363lv.1.2 bus2=p3ulv22960.1.2 switch=n enabled=y phases=2 Linecode=1P_OH_AL_4/0_Zuzara_0_416_0_2_2_2_2

New Line.l(r:p3udt2364lv-p3ulv2610) Units=km Length=0.0901302 bus1=p3udt2364lv.1.2 bus2=p3ulv2610.1.2 switch=n enabled=y phases=2 Linecode=1P_OH_AL_4/0_Zuzara_0_416_0_2_2_2_2

New Line.l(r:p3udm8201-p3ulv14413) Units=km Length=0.044372 bus1=p3udm8201.1.2 bus2=p3ulv14413.1.2 switch=n enabled=y phases=2 Linecode=1P_UG_AL_1/0_Brenau_0_416_0_2_2_2_2

New Line.l(r:p3udm8201-p3udt2364lv) Units=km Length=0.0365491 bus1=p3udt2364lv.1.2 bus2=p3udm8201.1.2 switch=n enabled=y phases=2 Linecode=1P_OH_AL_4/0_Zuzara_0_416_0_2_2_2_2

New Line.l(r:p3udt2365lv-p3ulv63906) Units=km Length=0.0878024 bus1=p3udt2365lv.1.2 bus2=p3ulv63906.1.2 switch=n enabled=y phases=2 Linecode=1P_OH_AL_4/0_Zuzara_0_416_0_2_2_2_2

New Line.l(r:p3udm8202-p3ulv2612) Units=km Length=0.085937 bus1=p3udm8202.1.2 bus2=p3ulv2612.1.2 switch=n enabled=y phases=2 Linecode=1P_OH_AL_4/0_Zuzara_0_416_0_2_2_2_2

New Line.l(r:p3udm8202-p3udt2365lv) Units=km Length=0.00547753 bus1=p3udt2365lv.1.2 bus2=p3udm8202.1.2 switch=n enabled=y phases=2 Linecode=1P_OH_AL_2/0_Rucina_0_416_0_2_2_2_2

New Line.l(r:p3udm8203-p3ulv22962) Units=km Length=0.103442 bus1=p3udm8203.1.2 bus2=p3ulv22962.1.2 switch=n enabled=y phases=2 Linecode=1P_OH_AL_4/0_Zuzara_0_416_0_2_2_2_2

New Line.l(r:p3udm8203-p3udt2365lv) Units=km Length=0.0408514 bus1=p3udt2365lv.1.2 bus2=p3udm8203.1.2 switch=n enabled=y phases=2 Linecode=1P_OH_AL_4/0_Zuzara_0_416_0_2_2_2_2

New Line.l(r:p3udt2367lv-p3ulv2614) Units=km Length=0.0359645 bus1=p3udt2367lv.1.2 bus2=p3ulv2614.1.2 switch=n enabled=y phases=2 Linecode=1P_OH_AL_4/0_Zuzara_0_416_0_2_2_2_2

New Line.l(r:p3udt2367lv-p3ulv40066) Units=km Length=0.049062100000000004 bus1=p3udt2367lv.1.2 bus2=p3ulv40066.1.2 switch=n enabled=y phases=2 Linecode=1P_OH_AL_4/0_Zuzara_0_416_0_2_2_2_2

New Line.l(r:p3udt2367lv-p3ulv50890) Units=km Length=0.11372 bus1=p3udt2367lv.1.2 bus2=p3ulv50890.1.2 switch=n enabled=y phases=2 Linecode=1P_OH_AL_4/0_Zuzara_0_416_0_2_2_2_2

New Line.l(r:p3udt2367lv-p3ulv79291) Units=km Length=0.0277725 bus1=p3udt2367lv.1.2 bus2=p3ulv79291.1.2 switch=n enabled=y phases=2 Linecode=1P_OH_AL_4/0_Zuzara_0_416_0_2_2_2_2

New Line.l(r:p3udt2368lv-p3ulv63168) Units=km Length=0.0889369 bus1=p3udt2368lv.1.2 bus2=p3ulv63168.1.2 switch=n enabled=y phases=2 Linecode=1P_OH_AL_4/0_Zuzara_0_416_0_2_2_2_2

New Line.l(r:p3udm8210-p3ulv2615) Units=km Length=0.07333400000000001 bus1=p3udm8210.1.2 bus2=p3ulv2615.1.2 switch=n enabled=y phases=2 Linecode=1P_OH_AL_4/0_Zuzara_0_416_0_2_2_2_2

New Line.l(r:p3udm8210-p3udt2368lv) Units=km Length=0.0188178 bus1=p3udt2368lv.1.2 bus2=p3udm8210.1.2 switch=n enabled=y phases=2 Linecode=1P_OH_AL_2/0_Rucina_0_416_0_2_2_2_2

New Line.l(r:p3udm8217-p3ulv2619) Units=km Length=0.016045000000000004 bus1=p3udm8217.1.2 bus2=p3ulv2619.1.2 switch=n enabled=y phases=2 Linecode=1P_OH_AL_2/0_Rucina_0_416_0_2_2_2_2

New Line.l(r:p3udm8217-p3ulv3398) Units=km Length=0.026274700000000005 bus1=p3udm8217.1.2 bus2=p3ulv3398.1.2 switch=n enabled=y phases=2 Linecode=1P_OH_AL_2/0_Rucina_0_416_0_2_2_2_2

New Line.l(r:p3udm8217-p3udt2372lv) Units=km Length=0.0187296 bus1=p3udt2372lv.1.2 bus2=p3udm8217.1.2 switch=n enabled=y phases=2 Linecode=1P_OH_AL_2/0_Rucina_0_416_0_2_2_2_2

New Line.l(r:p3udm8219-p3ulv10487) Units=km Length=0.0187875 bus1=p3udm8219.1.2 bus2=p3ulv10487.1.2 switch=n enabled=y phases=2 Linecode=1P_OH_AL_2/0_Rucina_0_416_0_2_2_2_2

New Line.l(r:p3udm8219-p3udt2372lv) Units=km Length=0.0631765 bus1=p3udt2372lv.1.2 bus2=p3udm8219.1.2 switch=n enabled=y phases=2 Linecode=1P_OH_AL_4/0_Zuzara_0_416_0_2_2_2_2

New Line.l(r:p3udt3072lv-p3ulv3387) Units=km Length=0.146095 bus1=p3udt3072lv.1.2 bus2=p3ulv3387.1.2 switch=n enabled=y phases=2 Linecode=1P_OH_AL_4/0_Zuzara_0_416_0_2_2_2_2

New Line.l(r:p3udt3072lv-p3ulv76973) Units=km Length=0.0283105 bus1=p3udt3072lv.1.2 bus2=p3ulv76973.1.2 switch=n enabled=y phases=2 Linecode=1P_OH_AL_4/0_Zuzara_0_416_0_2_2_2_2

New Line.l(r:p3udt3073lv-p3ulv3389) Units=km Length=0.01314 bus1=p3udt3073lv.1.2 bus2=p3ulv3389.1.2 switch=n enabled=y phases=2 Linecode=1P_OH_AL_2/0_Rucina_0_416_0_2_2_2_2

New Line.l(r:p3udm10696-p3ulv3388) Units=km Length=0.0193976 bus1=p3udm10696.1.2 bus2=p3ulv3388.1.2 switch=n enabled=y phases=2 Linecode=1P_OH_AL_2/0_Rucina_0_416_0_2_2_2_2

New Line.l(r:p3udm10696-p3udt3073lv) Units=km Length=0.019009 bus1=p3udt3073lv.1.2 bus2=p3udm10696.1.2 switch=n enabled=y phases=2 Linecode=1P_OH_AL_2/0_Rucina_0_416_0_2_2_2_2

New Line.l(r:p3udm10706-p3ulv3394) Units=km Length=0.0251933 bus1=p3udm10706.1.2 bus2=p3ulv3394.1.2 switch=n enabled=y phases=2 Linecode=1P_OH_AL_2/0_Rucina_0_416_0_2_2_2_2

New Line.l(r:p3udm10706-p3udt3078lv) Units=km Length=0.0185866 bus1=p3udt3078lv.1.2 bus2=p3udm10706.1.2 switch=n enabled=y phases=2 Linecode=1P_OH_AL_2/0_Rucina_0_416_0_2_2_2_2

New Line.l(r:p3udm10707-p3ulv63902) Units=km Length=0.0277461 bus1=p3udm10707.1.2 bus2=p3ulv63902.1.2 switch=n enabled=y phases=2 Linecode=1P_OH_AL_4/0_Zuzara_0_416_0_2_2_2_2

New Line.l(r:p3udm10707-p3udt3078lv) Units=km Length=0.0371931 bus1=p3udt3078lv.1.2 bus2=p3udm10707.1.2 switch=n enabled=y phases=2 Linecode=1P_OH_AL_4/0_Zuzara_0_416_0_2_2_2_2

New Line.l(r:p3udt3079lv-p3ulv3395) Units=km Length=0.0430786 bus1=p3udt3079lv.1.2 bus2=p3ulv3395.1.2 switch=n enabled=y phases=2 Linecode=1P_OH_AL_4/0_Zuzara_0_416_0_2_2_2_2

New Line.l(r:p3udt3080lv-p3ulv74674) Units=km Length=0.0568962 bus1=p3udt3080lv.1.2 bus2=p3ulv74674.1.2 switch=n enabled=y phases=2 Linecode=1P_OH_AL_4/0_Zuzara_0_416_0_2_2_2_2

New Line.l(r:p3udm10709-p3ulv3396) Units=km Length=0.0279824 bus1=p3udm10709.1.2 bus2=p3ulv3396.1.2 switch=n enabled=y phases=2 Linecode=1P_OH_AL_4/0_Zuzara_0_416_0_2_2_2_2

New Line.l(r:p3udm10709-p3ulv80042) Units=km Length=0.0480413 bus1=p3udm10709.1.2 bus2=p3ulv80042.1.2 switch=n enabled=y phases=2 Linecode=1P_OH_AL_4/0_Zuzara_0_416_0_2_2_2_2

New Line.l(r:p3udm10709-p3udt3080lv) Units=km Length=0.0173219 bus1=p3udt3080lv.1.2 bus2=p3udm10709.1.2 switch=n enabled=y phases=2 Linecode=1P_OH_AL_2/0_Rucina_0_416_0_2_2_2_2

New Line.l(r:p3udm10710-p3ulv40064) Units=km Length=0.0331744 bus1=p3udm10710.1.2 bus2=p3ulv40064.1.2 switch=n enabled=y phases=2 Linecode=1P_OH_AL_4/0_Zuzara_0_416_0_2_2_2_2

New Line.l(r:p3udm10710-p3udt3080lv) Units=km Length=0.017312400000000002 bus1=p3udt3080lv.1.2 bus2=p3udm10710.1.2 switch=n enabled=y phases=2 Linecode=1P_OH_AL_2/0_Rucina_0_416_0_2_2_2_2

New Line.l(r:p3udt3081lv-p3ulv15195) Units=km Length=0.100693 bus1=p3udt3081lv.1.2 bus2=p3ulv15195.1.2 switch=n enabled=y phases=2 Linecode=1P_OH_AL_4/0_Zuzara_0_416_0_2_2_2_2

New Line.l(r:p3udm10713-p3ulv3397) Units=km Length=0.0235826 bus1=p3udm10713.1.2 bus2=p3ulv3397.1.2 switch=n enabled=y phases=2 Linecode=1P_OH_AL_2/0_Rucina_0_416_0_2_2_2_2

New Line.l(r:p3udm10716-p3ulv66979) Units=km Length=0.0372342 bus1=p3udm10716.1.2 bus2=p3ulv66979.1.2 switch=n enabled=y phases=2 Linecode=1P_OH_AL_4/0_Zuzara_0_416_0_2_2_2_2

New Line.l(r:p3udm10713-p3udm10716) Units=km Length=0.0203587 bus1=p3udm10713.1.2 bus2=p3udm10716.1.2 switch=n enabled=y phases=2 Linecode=1P_OH_AL_2/0_Rucina_0_416_0_2_2_2_2

New Line.l(r:p3udm10713-p3udt3081lv) Units=km Length=0.0149606 bus1=p3udt3081lv.1.2 bus2=p3udm10713.1.2 switch=n enabled=y phases=2 Linecode=1P_OH_AL_2/0_Rucina_0_416_0_2_2_2_2

New Line.l(r:p3udm10714-p3ulv14414) Units=km Length=0.0847081 bus1=p3udm10714.1.2 bus2=p3ulv14414.1.2 switch=n enabled=y phases=2 Linecode=1P_OH_AL_4/0_Zuzara_0_416_0_2_2_2_2

New Line.l(r:p3udm10714-p3udt3081lv) Units=km Length=0.0149704 bus1=p3udt3081lv.1.2 bus2=p3udm10714.1.2 switch=n enabled=y phases=2 Linecode=1P_OH_AL_2/0_Rucina_0_416_0_2_2_2_2

New Line.l(r:p3udt3082lv-p3ulv3399) Units=km Length=0.024507 bus1=p3udt3082lv.1.2 bus2=p3ulv3399.1.2 switch=n enabled=y phases=2 Linecode=1P_OH_AL_2/0_Rucina_0_416_0_2_2_2_2

New Line.l(r:p3udm10718-p3ulv39275) Units=km Length=0.0171009 bus1=p3udm10718.1.2 bus2=p3ulv39275.1.2 switch=n enabled=y phases=2 Linecode=1P_OH_AL_2/0_Rucina_0_416_0_2_2_2_2

New Line.l(r:p3udm10718-p3udt3082lv) Units=km Length=0.019637800000000004 bus1=p3udt3082lv.1.2 bus2=p3udm10718.1.2 switch=n enabled=y phases=2 Linecode=1P_OH_AL_2/0_Rucina_0_416_0_2_2_2_2

New Line.l(r:p3udt3775lv-p3ulv4190) Units=km Length=0.0522015 bus1=p3udt3775lv.1.2 bus2=p3ulv4190.1.2 switch=n enabled=y phases=2 Linecode=1P_OH_AL_4/0_Zuzara_0_416_0_2_2_2_2

New Line.l(r:p3udt3776lv-p3ulv4191) Units=km Length=0.023329900000000004 bus1=p3udt3776lv.1.2 bus2=p3ulv4191.1.2 switch=n enabled=y phases=2 Linecode=1P_OH_AL_2/0_Rucina_0_416_0_2_2_2_2

New Line.l(r:p3udt3778lv-p3ulv4193) Units=km Length=0.020544 bus1=p3udt3778lv.1.2 bus2=p3ulv4193.1.2 switch=n enabled=y phases=2 Linecode=1P_OH_AL_2/0_Rucina_0_416_0_2_2_2_2

New Line.l(r:p3udt3778lv-p3ulv36234) Units=km Length=0.020544 bus1=p3udt3778lv.1.2 bus2=p3ulv36234.1.2 switch=n enabled=y phases=2 Linecode=1P_OH_AL_2/0_Rucina_0_416_0_2_2_2_2

New Line.l(r:p3udt3781lv-p3ulv4197) Units=km Length=0.0445205 bus1=p3udt3781lv.1.2 bus2=p3ulv4197.1.2 switch=n enabled=y phases=2 Linecode=1P_OH_AL_4/0_Zuzara_0_416_0_2_2_2_2

New Line.l(r:p3udt3781lv-p3ulv22965) Units=km Length=0.0692023 bus1=p3udt3781lv.1.2 bus2=p3ulv22965.1.2 switch=n enabled=y phases=2 Linecode=1P_OH_AL_4/0_Zuzara_0_416_0_2_2_2_2

New Line.l(r:p3udm13105-p3ulv4198) Units=km Length=0.0297516 bus1=p3udm13105.1.2 bus2=p3ulv4198.1.2 switch=n enabled=y phases=2 Linecode=1P_OH_AL_4/0_Zuzara_0_416_0_2_2_2_2

New Line.l(r:p3udm13105-p3udt3782lv) Units=km Length=0.0309063 bus1=p3udt3782lv.1.2 bus2=p3udm13105.1.2 switch=n enabled=y phases=2 Linecode=1P_OH_AL_4/0_Zuzara_0_416_0_2_2_2_2

New Line.l(r:p3udm13106-p3ulv51662) Units=km Length=0.014397600000000002 bus1=p3udm13106.1.2 bus2=p3ulv51662.1.2 switch=n enabled=y phases=2 Linecode=1P_OH_AL_2/0_Rucina_0_416_0_2_2_2_2
