New Line.l(r:p2udm104-p2ulv29) Units=km Length=0.0114867 bus1=p2udm104.1.2 bus2=p2ulv29.1.2 switch=n enabled=y phases=2 Linecode=1P_UG_AL_1/0_Brenau_0_416_0_2_2_2_2

New Line.l(r:p2udm105-p2ulv3921) Units=km Length=0.0170713 bus1=p2udm105.1.2 bus2=p2ulv3921.1.2 switch=n enabled=y phases=2 Linecode=1P_UG_AL_4/0_Sweetbriar_0_416_0_2_2_2_2

New Line.l(r:p2udm104-p2udm105) Units=km Length=0.00924295 bus1=p2udm104.1.2 bus2=p2udm105.1.2 switch=n enabled=y phases=2 Linecode=1P_UG_AL_4/0_Sweetbriar_0_416_0_2_2_2_2

New Line.l(r:p2udm104-p2udt28lv) Units=km Length=0.00924295 bus1=p2udt28lv.1.2 bus2=p2udm104.1.2 switch=n enabled=y phases=2 Linecode=1P_UG_AL_4/0_Sweetbriar_0_416_0_2_2_2_2

New Line.l(r:p2udm106-p2ulv23588) Units=km Length=0.0115895 bus1=p2udm106.1.2 bus2=p2ulv23588.1.2 switch=n enabled=y phases=2 Linecode=1P_UG_AL_4/0_Sweetbriar_0_416_0_2_2_2_2

New Line.l(r:p2udm106-p2udt28lv) Units=km Length=0.00924767 bus1=p2udt28lv.1.2 bus2=p2udm106.1.2 switch=n enabled=y phases=2 Linecode=1P_UG_AL_4/0_Sweetbriar_0_416_0_2_2_2_2

New Line.l(r:p2udm107-p2ulv30) Units=km Length=0.0102563 bus1=p2udm107.1.2 bus2=p2ulv30.1.2 switch=n enabled=y phases=2 Linecode=1P_UG_AL_4/0_Sweetbriar_0_416_0_2_2_2_2

New Line.l(r:p2udm107-p2udt29lv) Units=km Length=0.0342199 bus1=p2udt29lv.1.2 bus2=p2udm107.1.2 switch=n enabled=y phases=2 Linecode=1P_UG_AL_4/0_Sweetbriar_0_416_0_2_2_2_2

New Line.l(r:p2udm108-p2ulv4897) Units=km Length=0.0101584 bus1=p2udm108.1.2 bus2=p2ulv4897.1.2 switch=n enabled=y phases=2 Linecode=1P_UG_AL_4/0_Sweetbriar_0_416_0_2_2_2_2

New Line.l(r:p2udm108-p2udt29lv) Units=km Length=0.026704 bus1=p2udt29lv.1.2 bus2=p2udm108.1.2 switch=n enabled=y phases=2 Linecode=1P_UG_AL_4/0_Sweetbriar_0_416_0_2_2_2_2

New Line.l(r:p2udt298lv-p2ulv306) Units=km Length=0.0118878 bus1=p2udt298lv.1.2 bus2=p2ulv306.1.2 switch=n enabled=y phases=2 Linecode=1P_UG_AL_4/0_Sweetbriar_0_416_0_2_2_2_2

New Line.l(r:p2udm1075-p2ulv8281) Units=km Length=0.0104053 bus1=p2udm1075.1.2 bus2=p2ulv8281.1.2 switch=n enabled=y phases=2 Linecode=1P_UG_AL_1/0_Brenau_0_416_0_2_2_2_2

New Line.l(r:p2udm1075-p2udt298lv) Units=km Length=0.00792516 bus1=p2udt298lv.1.2 bus2=p2udm1075.1.2 switch=n enabled=y phases=2 Linecode=1P_UG_AL_1/0_Brenau_0_416_0_2_2_2_2

New Line.l(r:p2udm1076-p2ulv9865) Units=km Length=0.010842300000000001 bus1=p2udm1076.1.2 bus2=p2ulv9865.1.2 switch=n enabled=y phases=2 Linecode=1P_UG_AL_4/0_Sweetbriar_0_416_0_2_2_2_2

New Line.l(r:p2udm1076-p2udt298lv) Units=km Length=0.00791581 bus1=p2udt298lv.1.2 bus2=p2udm1076.1.2 switch=n enabled=y phases=2 Linecode=1P_UG_AL_4/0_Sweetbriar_0_416_0_2_2_2_2

New Line.l(r:p2udm1077-p2ulv307) Units=km Length=0.00938461 bus1=p2udm1077.1.2 bus2=p2ulv307.1.2 switch=n enabled=y phases=2 Linecode=1P_UG_AL_4/0_Sweetbriar_0_416_0_2_2_2_2

New Line.l(r:p2udm1077-p2udt299lv) Units=km Length=0.00983024 bus1=p2udt299lv.1.2 bus2=p2udm1077.1.2 switch=n enabled=y phases=2 Linecode=1P_UG_AL_4/0_Sweetbriar_0_416_0_2_2_2_2

New Line.l(r:p2udm1078-p2ulv3919) Units=km Length=0.0131029 bus1=p2udm1078.1.2 bus2=p2ulv3919.1.2 switch=n enabled=y phases=2 Linecode=1P_UG_AL_4/0_Sweetbriar_0_416_0_2_2_2_2

New Line.l(r:p2udm1078-p2ulv14315) Units=km Length=0.0156865 bus1=p2udm1078.1.2 bus2=p2ulv14315.1.2 switch=n enabled=y phases=2 Linecode=1P_UG_AL_2/0_Converse_0_416_0_2_2_2_2

New Line.l(r:p2udm1078-p2udt299lv) Units=km Length=0.009818290000000002 bus1=p2udt299lv.1.2 bus2=p2udm1078.1.2 switch=n enabled=y phases=2 Linecode=1P_UG_AL_4/0_Sweetbriar_0_416_0_2_2_2_2

New Line.l(r:p2udm1080-p2ulv308) Units=km Length=0.0122124 bus1=p2udm1080.1.2 bus2=p2ulv308.1.2 switch=n enabled=y phases=2 Linecode=1P_UG_AL_1/0_Brenau_0_416_0_2_2_2_2

New Line.l(r:p2udm1080-p2udt300lv) Units=km Length=0.00936004 bus1=p2udt300lv.1.2 bus2=p2udm1080.1.2 switch=n enabled=y phases=2 Linecode=1P_UG_AL_1/0_Brenau_0_416_0_2_2_2_2

New Line.l(r:p2udm1081-p2ulv23388) Units=km Length=0.0102439 bus1=p2udm1081.1.2 bus2=p2ulv23388.1.2 switch=n enabled=y phases=2 Linecode=1P_UG_AL_4/0_Sweetbriar_0_416_0_2_2_2_2

New Line.l(r:p2udm1081-p2udt300lv) Units=km Length=0.0187147 bus1=p2udt300lv.1.2 bus2=p2udm1081.1.2 switch=n enabled=y phases=2 Linecode=1P_UG_AL_4/0_Sweetbriar_0_416_0_2_2_2_2

New Line.l(r:p2udt301lv-p2ulv20251) Units=km Length=0.00914366 bus1=p2udt301lv.1.2 bus2=p2ulv20251.1.2 switch=n enabled=y phases=2 Linecode=1P_UG_AL_4/0_Sweetbriar_0_416_0_2_2_2_2

New Line.l(r:p2udm1082-p2ulv309) Units=km Length=0.012566 bus1=p2udm1082.1.2 bus2=p2ulv309.1.2 switch=n enabled=y phases=2 Linecode=1P_UG_AL_1/0_Brenau_0_416_0_2_2_2_2

New Line.l(r:p2udm1082-p2udt301lv) Units=km Length=0.008356 bus1=p2udt301lv.1.2 bus2=p2udm1082.1.2 switch=n enabled=y phases=2 Linecode=1P_UG_AL_1/0_Brenau_0_416_0_2_2_2_2

New Line.l(r:p2udm1083-p2ulv7537) Units=km Length=0.00989346 bus1=p2udm1083.1.2 bus2=p2ulv7537.1.2 switch=n enabled=y phases=2 Linecode=1P_UG_AL_4/0_Sweetbriar_0_416_0_2_2_2_2

New Line.l(r:p2udm1083-p2udt301lv) Units=km Length=0.016732 bus1=p2udt301lv.1.2 bus2=p2udm1083.1.2 switch=n enabled=y phases=2 Linecode=1P_UG_AL_4/0_Sweetbriar_0_416_0_2_2_2_2

New Line.l(r:p2udt309lv-p2ulv5858) Units=km Length=0.0122267 bus1=p2udt309lv.1.2 bus2=p2ulv5858.1.2 switch=n enabled=y phases=2 Linecode=1P_UG_AL_4/0_Sweetbriar_0_416_0_2_2_2_2

New Line.l(r:p2udm1113-p2ulv317) Units=km Length=0.0085036 bus1=p2udm1113.1.2 bus2=p2ulv317.1.2 switch=n enabled=y phases=2 Linecode=1P_UG_AL_1/0_Brenau_0_416_0_2_2_2_2

New Line.l(r:p2udm1115-p2ulv10352) Units=km Length=0.0133743 bus1=p2udm1115.1.2 bus2=p2ulv10352.1.2 switch=n enabled=y phases=2 Linecode=1P_UG_AL_1/0_Brenau_0_416_0_2_2_2_2

New Line.l(r:p2udm1113-p2udm1115) Units=km Length=0.00672876 bus1=p2udm1113.1.2 bus2=p2udm1115.1.2 switch=n enabled=y phases=2 Linecode=1P_UG_AL_1/0_Brenau_0_416_0_2_2_2_2

New Line.l(r:p2udm1113-p2udt309lv) Units=km Length=0.00790006 bus1=p2udt309lv.1.2 bus2=p2udm1113.1.2 switch=n enabled=y phases=2 Linecode=1P_UG_AL_4/0_Sweetbriar_0_416_0_2_2_2_2

New Line.l(r:p2udm1116-p2ulv10353) Units=km Length=0.0140218 bus1=p2udm1116.1.2 bus2=p2ulv10353.1.2 switch=n enabled=y phases=2 Linecode=1P_UG_AL_1/0_Brenau_0_416_0_2_2_2_2

New Line.l(r:p2udm1116-p2udt309lv) Units=km Length=0.0155132 bus1=p2udt309lv.1.2 bus2=p2udm1116.1.2 switch=n enabled=y phases=2 Linecode=1P_UG_AL_1/0_Brenau_0_416_0_2_2_2_2

New Line.l(r:p2udt493lv-p2ulv517) Units=km Length=0.014120100000000002 bus1=p2udt493lv.1.2 bus2=p2ulv517.1.2 switch=n enabled=y phases=2 Linecode=1P_UG_AL_1/0_Brenau_0_416_0_2_2_2_2

New Line.l(r:p2udm1796-p2ulv11301) Units=km Length=0.0138144 bus1=p2udm1796.1.2 bus2=p2ulv11301.1.2 switch=n enabled=y phases=2 Linecode=1P_UG_AL_4/0_Sweetbriar_0_416_0_2_2_2_2

New Line.l(r:p2udm1796-p2udt493lv) Units=km Length=0.009989 bus1=p2udt493lv.1.2 bus2=p2udm1796.1.2 switch=n enabled=y phases=2 Linecode=1P_UG_AL_4/0_Sweetbriar_0_416_0_2_2_2_2

New Line.l(r:p2udt705lv-p2ulv748) Units=km Length=0.0110355 bus1=p2udt705lv.1.2 bus2=p2ulv748.1.2 switch=n enabled=y phases=2 Linecode=1P_OH_AL_2/0_Rucina_0_416_0_2_2_2_2

New Line.l(r:p2udm2609-p2ulv8930) Units=km Length=0.0101027 bus1=p2udm2609.1.2 bus2=p2ulv8930.1.2 switch=n enabled=y phases=2 Linecode=1P_OH_AL_2/0_Rucina_0_416_0_2_2_2_2

New Line.l(r:p2udm2609-p2udt705lv) Units=km Length=0.0175939 bus1=p2udt705lv.1.2 bus2=p2udm2609.1.2 switch=n enabled=y phases=2 Linecode=1P_OH_AL_2/0_Rucina_0_416_0_2_2_2_2

New Line.l(r:p2udm2610-p2ulv23839) Units=km Length=0.0126785 bus1=p2udm2610.1.2 bus2=p2ulv23839.1.2 switch=n enabled=y phases=2 Linecode=1P_OH_AL_2/0_Rucina_0_416_0_2_2_2_2

New Line.l(r:p2udm2610-p2udt705lv) Units=km Length=0.017584200000000005 bus1=p2udt705lv.1.2 bus2=p2udm2610.1.2 switch=n enabled=y phases=2 Linecode=1P_OH_AL_2/0_Rucina_0_416_0_2_2_2_2

New Line.l(r:p2udt706lv-p2ulv749) Units=km Length=0.0108806 bus1=p2udt706lv.1.2 bus2=p2ulv749.1.2 switch=n enabled=y phases=2 Linecode=1P_OH_AL_2/0_Rucina_0_416_0_2_2_2_2

New Line.l(r:p2udt706lv-p2ulv7534) Units=km Length=0.0102163 bus1=p2udt706lv.1.2 bus2=p2ulv7534.1.2 switch=n enabled=y phases=2 Linecode=1P_OH_AL_2/0_Rucina_0_416_0_2_2_2_2

New Line.l(r:p2udt706lv-p2ulv14774) Units=km Length=0.0111052 bus1=p2udt706lv.1.2 bus2=p2ulv14774.1.2 switch=n enabled=y phases=2 Linecode=1P_OH_AL_2/0_Rucina_0_416_0_2_2_2_2

New Line.l(r:p2udm2612-p2ulv1241) Units=km Length=0.0132592 bus1=p2udm2612.1.2 bus2=p2ulv1241.1.2 switch=n enabled=y phases=2 Linecode=1P_OH_AL_2/0_Rucina_0_416_0_2_2_2_2

New Line.l(r:p2udm2612-p2udt706lv) Units=km Length=0.0334095 bus1=p2udt706lv.1.2 bus2=p2udm2612.1.2 switch=n enabled=y phases=2 Linecode=1P_OH_AL_4/0_Zuzara_0_416_0_2_2_2_2

New Line.l(r:p2udt707lv-p2ulv4415) Units=km Length=0.0116595 bus1=p2udt707lv.1.2 bus2=p2ulv4415.1.2 switch=n enabled=y phases=2 Linecode=1P_UG_AL_1/0_Brenau_0_416_0_2_2_2_2

New Line.l(r:p2udm2615-p2ulv750) Units=km Length=0.0114341 bus1=p2udm2615.1.2 bus2=p2ulv750.1.2 switch=n enabled=y phases=2 Linecode=1P_UG_AL_4/0_Sweetbriar_0_416_0_2_2_2_2

New Line.l(r:p2udm2615-p2udt707lv) Units=km Length=0.00998059 bus1=p2udt707lv.1.2 bus2=p2udm2615.1.2 switch=n enabled=y phases=2 Linecode=1P_UG_AL_4/0_Sweetbriar_0_416_0_2_2_2_2

New Line.l(r:p2udm2617-p2ulv23198) Units=km Length=0.0103636 bus1=p2udm2617.1.2 bus2=p2ulv23198.1.2 switch=n enabled=y phases=2 Linecode=1P_UG_AL_4/0_Sweetbriar_0_416_0_2_2_2_2

New Line.l(r:p2udm2617-p2udt707lv) Units=km Length=0.0099944 bus1=p2udt707lv.1.2 bus2=p2udm2617.1.2 switch=n enabled=y phases=2 Linecode=1P_UG_AL_4/0_Sweetbriar_0_416_0_2_2_2_2

New Line.l(r:p2udt718lv-p2ulv761) Units=km Length=0.0112802 bus1=p2udt718lv.1.2 bus2=p2ulv761.1.2 switch=n enabled=y phases=2 Linecode=1P_OH_AL_2/0_Rucina_0_416_0_2_2_2_2

New Line.l(r:p2udt718lv-p2ulv24084) Units=km Length=0.012957900000000001 bus1=p2udt718lv.1.2 bus2=p2ulv24084.1.2 switch=n enabled=y phases=2 Linecode=1P_OH_AL_2/0_Rucina_0_416_0_2_2_2_2

New Line.l(r:p2udm2652-p2ulv4665) Units=km Length=0.00895424 bus1=p2udm2652.1.2 bus2=p2ulv4665.1.2 switch=n enabled=y phases=2 Linecode=1P_OH_AL_2/0_Rucina_0_416_0_2_2_2_2

New Line.l(r:p2udm2652-p2udt718lv) Units=km Length=0.0195589 bus1=p2udt718lv.1.2 bus2=p2udm2652.1.2 switch=n enabled=y phases=2 Linecode=1P_OH_AL_2/0_Rucina_0_416_0_2_2_2_2

New Line.l(r:p2udt719lv-p2ulv762) Units=km Length=0.00987094 bus1=p2udt719lv.1.2 bus2=p2ulv762.1.2 switch=n enabled=y phases=2 Linecode=1P_OH_AL_2/0_Rucina_0_416_0_2_2_2_2

New Line.l(r:p2udm2655-p2ulv8715) Units=km Length=0.0115918 bus1=p2udm2655.1.2 bus2=p2ulv8715.1.2 switch=n enabled=y phases=2 Linecode=1P_OH_AL_2/0_Rucina_0_416_0_2_2_2_2

New Line.l(r:p2udm2655-p2udt719lv) Units=km Length=0.019567700000000004 bus1=p2udt719lv.1.2 bus2=p2udm2655.1.2 switch=n enabled=y phases=2 Linecode=1P_OH_AL_2/0_Rucina_0_416_0_2_2_2_2

New Line.l(r:p2udm2656-p2ulv12498) Units=km Length=0.011334 bus1=p2udm2656.1.2 bus2=p2ulv12498.1.2 switch=n enabled=y phases=2 Linecode=1P_OH_AL_2/0_Rucina_0_416_0_2_2_2_2

New Line.l(r:p2udm2657-p2ulv19596) Units=km Length=0.0128709 bus1=p2udm2657.1.2 bus2=p2ulv19596.1.2 switch=n enabled=y phases=2 Linecode=1P_OH_AL_2/0_Rucina_0_416_0_2_2_2_2

New Line.l(r:p2udm2656-p2udm2657) Units=km Length=0.0195628 bus1=p2udm2656.1.2 bus2=p2udm2657.1.2 switch=n enabled=y phases=2 Linecode=1P_OH_AL_2/0_Rucina_0_416_0_2_2_2_2

New Line.l(r:p2udm2656-p2udt719lv) Units=km Length=0.0195541 bus1=p2udt719lv.1.2 bus2=p2udm2656.1.2 switch=n enabled=y phases=2 Linecode=1P_OH_AL_2/0_Rucina_0_416_0_2_2_2_2

New Line.l(r:p2udt952lv-p2ulv1017) Units=km Length=0.00923049 bus1=p2udt952lv.1.2 bus2=p2ulv1017.1.2 switch=n enabled=y phases=2 Linecode=1P_UG_AL_2/0_Converse_0_416_0_2_2_2_2

New Line.l(r:p2udm3504-p2ulv9867) Units=km Length=0.00941829 bus1=p2udm3504.1.2 bus2=p2ulv9867.1.2 switch=n enabled=y phases=2 Linecode=1P_UG_AL_1/0_Brenau_0_416_0_2_2_2_2

New Line.l(r:p2udm3504-p2udt952lv) Units=km Length=0.00933844 bus1=p2udt952lv.1.2 bus2=p2udm3504.1.2 switch=n enabled=y phases=2 Linecode=1P_UG_AL_1/0_Brenau_0_416_0_2_2_2_2

New Line.l(r:p2udt953lv-p2ulv18864) Units=km Length=0.0125566 bus1=p2udt953lv.1.2 bus2=p2ulv18864.1.2 switch=n enabled=y phases=2 Linecode=1P_UG_AL_1/0_Brenau_0_416_0_2_2_2_2

New Line.l(r:p2udm3505-p2ulv1018) Units=km Length=0.013318800000000002 bus1=p2udm3505.1.2 bus2=p2ulv1018.1.2 switch=n enabled=y phases=2 Linecode=1P_UG_AL_4/0_Sweetbriar_0_416_0_2_2_2_2

New Line.l(r:p2udm3505-p2udt953lv) Units=km Length=0.00973005 bus1=p2udt953lv.1.2 bus2=p2udm3505.1.2 switch=n enabled=y phases=2 Linecode=1P_UG_AL_4/0_Sweetbriar_0_416_0_2_2_2_2

New Line.l(r:p2udt954lv-p2ulv1019) Units=km Length=0.0132503 bus1=p2udt954lv.1.2 bus2=p2ulv1019.1.2 switch=n enabled=y phases=2 Linecode=1P_UG_AL_2/0_Converse_0_416_0_2_2_2_2

New Line.l(r:p2udm4152-p2ulv1240) Units=km Length=0.00418191 bus1=p2udm4152.1.2 bus2=p2ulv1240.1.2 switch=n enabled=y phases=2 Linecode=1P_UG_AL_1/0_Brenau_0_416_0_2_2_2_2

New Line.l(r:p2udm4154-p2ulv6596) Units=km Length=0.01212 bus1=p2udm4154.1.2 bus2=p2ulv6596.1.2 switch=n enabled=y phases=2 Linecode=1P_UG_AL_1/0_Brenau_0_416_0_2_2_2_2

New Line.l(r:p2udm4152-p2udm4154) Units=km Length=0.00905415 bus1=p2udm4152.1.2 bus2=p2udm4154.1.2 switch=n enabled=y phases=2 Linecode=1P_UG_AL_1/0_Brenau_0_416_0_2_2_2_2

New Line.l(r:p2udm4152-p2udt1135lv) Units=km Length=0.009049470000000002 bus1=p2udt1135lv.1.2 bus2=p2udm4152.1.2 switch=n enabled=y phases=2 Linecode=1P_UG_AL_4/0_Sweetbriar_0_416_0_2_2_2_2

New Line.l(r:p2udm4153-p2ulv3676) Units=km Length=0.0128562 bus1=p2udm4153.1.2 bus2=p2ulv3676.1.2 switch=n enabled=y phases=2 Linecode=1P_UG_AL_2/0_Converse_0_416_0_2_2_2_2

New Line.l(r:p2udm4155-p2ulv11300) Units=km Length=0.0117111 bus1=p2udm4155.1.2 bus2=p2ulv11300.1.2 switch=n enabled=y phases=2 Linecode=1P_UG_AL_1/0_Brenau_0_416_0_2_2_2_2

New Line.l(r:p2udm4153-p2udm4155) Units=km Length=0.009049470000000002 bus1=p2udm4153.1.2 bus2=p2udm4155.1.2 switch=n enabled=y phases=2 Linecode=1P_UG_AL_1/0_Brenau_0_416_0_2_2_2_2

New Line.l(r:p2udm4153-p2udt1135lv) Units=km Length=0.00905415 bus1=p2udt1135lv.1.2 bus2=p2udm4153.1.2 switch=n enabled=y phases=2 Linecode=1P_UG_AL_4/0_Sweetbriar_0_416_0_2_2_2_2

New Line.l(r:p2udt1141lv-p2ulv1250) Units=km Length=0.0112532 bus1=p2udt1141lv.1.2 bus2=p2ulv1250.1.2 switch=n enabled=y phases=2 Linecode=1P_OH_AL_2/0_Rucina_0_416_0_2_2_2_2

New Line.l(r:p2udt1141lv-p2ulv2980) Units=km Length=0.010037200000000001 bus1=p2udt1141lv.1.2 bus2=p2ulv2980.1.2 switch=n enabled=y phases=2 Linecode=1P_OH_AL_2/0_Rucina_0_416_0_2_2_2_2

New Line.l(r:p2udm4182-p2ulv21820) Units=km Length=0.0101576 bus1=p2udm4182.1.2 bus2=p2ulv21820.1.2 switch=n enabled=y phases=2 Linecode=1P_OH_AL_2/0_Rucina_0_416_0_2_2_2_2

New Line.l(r:p2udm4182-p2udt1141lv) Units=km Length=0.00764652 bus1=p2udt1141lv.1.2 bus2=p2udm4182.1.2 switch=n enabled=y phases=2 Linecode=1P_OH_AL_2/0_Rucina_0_416_0_2_2_2_2

New Line.l(r:p2udt1361lv-p2ulv10103) Units=km Length=0.010852 bus1=p2udt1361lv.1.2 bus2=p2ulv10103.1.2 switch=n enabled=y phases=2 Linecode=1P_OH_AL_2/0_Rucina_0_416_0_2_2_2_2

New Line.l(r:p2udm4995-p2ulv1501) Units=km Length=0.0102117 bus1=p2udm4995.1.2 bus2=p2ulv1501.1.2 switch=n enabled=y phases=2 Linecode=1P_OH_AL_2/0_Rucina_0_416_0_2_2_2_2

New Line.l(r:p2udm4995-p2udt1361lv) Units=km Length=0.00528421 bus1=p2udt1361lv.1.2 bus2=p2udm4995.1.2 switch=n enabled=y phases=2 Linecode=1P_OH_AL_2/0_Rucina_0_416_0_2_2_2_2

New Line.l(r:p2udt1545lv-p2ulv1718) Units=km Length=0.0103977 bus1=p2udt1545lv.1.2 bus2=p2ulv1718.1.2 switch=n enabled=y phases=2 Linecode=1P_UG_AL_4/0_Sweetbriar_0_416_0_2_2_2_2

New Line.l(r:p2udt1546lv-p2ulv1719) Units=km Length=0.00876416 bus1=p2udt1546lv.1.2 bus2=p2ulv1719.1.2 switch=n enabled=y phases=2 Linecode=1P_UG_AL_1/0_Brenau_0_416_0_2_2_2_2

New Line.l(r:p2udm5639-p2ulv3920) Units=km Length=0.00873112 bus1=p2udm5639.1.2 bus2=p2ulv3920.1.2 switch=n enabled=y phases=2 Linecode=1P_UG_AL_4/0_Sweetbriar_0_416_0_2_2_2_2

New Line.l(r:p2udm5639-p2udt1546lv) Units=km Length=0.00982049 bus1=p2udt1546lv.1.2 bus2=p2udm5639.1.2 switch=n enabled=y phases=2 Linecode=1P_UG_AL_4/0_Sweetbriar_0_416_0_2_2_2_2

New Line.l(r:p2udm5641-p2ulv19346) Units=km Length=0.0106871 bus1=p2udm5641.1.2 bus2=p2ulv19346.1.2 switch=n enabled=y phases=2 Linecode=1P_UG_AL_2/0_Converse_0_416_0_2_2_2_2

New Line.l(r:p2udm5640-p2ulv12017) Units=km Length=0.0110955 bus1=p2udm5640.1.2 bus2=p2ulv12017.1.2 switch=n enabled=y phases=2 Linecode=1P_UG_AL_1/0_Brenau_0_416_0_2_2_2_2

New Line.l(r:p2udm5640-p2udm5641) Units=km Length=0.05743720000000001 bus1=p2udm5641.1.2 bus2=p2udm5640.1.2 switch=n enabled=y phases=2 Linecode=1P_UG_AL_1/0_Brenau_0_416_0_2_2_2_2

New Line.l(r:p2udm5641-p2udt1546lv) Units=km Length=0.0196268 bus1=p2udt1546lv.1.2 bus2=p2udm5641.1.2 switch=n enabled=y phases=2 Linecode=1P_UG_AL_4/0_Sweetbriar_0_416_0_2_2_2_2

New Line.l(r:p2udm5670-p2ulv1733) Units=km Length=0.00865166 bus1=p2udm5670.1.2 bus2=p2ulv1733.1.2 switch=n enabled=y phases=2 Linecode=1P_UG_AL_4/0_Sweetbriar_0_416_0_2_2_2_2

New Line.l(r:p2udm5670-p2udt1555lv) Units=km Length=0.008401010000000002 bus1=p2udt1555lv.1.2 bus2=p2udm5670.1.2 switch=n enabled=y phases=2 Linecode=1P_UG_AL_4/0_Sweetbriar_0_416_0_2_2_2_2

New Line.l(r:p2udm5671-p2ulv8056) Units=km Length=0.00849259 bus1=p2udm5671.1.2 bus2=p2ulv8056.1.2 switch=n enabled=y phases=2 Linecode=1P_UG_AL_2/0_Converse_0_416_0_2_2_2_2

New Line.l(r:p2udm5671-p2ulv8939) Units=km Length=0.0130893 bus1=p2udm5671.1.2 bus2=p2ulv8939.1.2 switch=n enabled=y phases=2 Linecode=1P_UG_AL_4/0_Sweetbriar_0_416_0_2_2_2_2

New Line.l(r:p2udm5671-p2udt1555lv) Units=km Length=0.00840086 bus1=p2udt1555lv.1.2 bus2=p2udm5671.1.2 switch=n enabled=y phases=2 Linecode=1P_UG_AL_4/0_Sweetbriar_0_416_0_2_2_2_2

New Line.l(r:p2udt1556lv-p2ulv1734) Units=km Length=0.0164526 bus1=p2udt1556lv.1.2 bus2=p2ulv1734.1.2 switch=n enabled=y phases=2 Linecode=1P_OH_AL_2/0_Rucina_0_416_0_2_2_2_2

New Line.l(r:p2udt1556lv-p2ulv3685) Units=km Length=0.0178308 bus1=p2udt1556lv.1.2 bus2=p2ulv3685.1.2 switch=n enabled=y phases=2 Linecode=1P_OH_AL_2/0_Rucina_0_416_0_2_2_2_2

New Line.l(r:p2udt1556lv-p2ulv3929) Units=km Length=0.0268729 bus1=p2udt1556lv.1.2 bus2=p2ulv3929.1.2 switch=n enabled=y phases=2 Linecode=1P_OH_AL_2/0_Rucina_0_416_0_2_2_2_2

New Line.l(r:p2udt1556lv-p2ulv4166) Units=km Length=0.0210532 bus1=p2udt1556lv.1.2 bus2=p2ulv4166.1.2 switch=n enabled=y phases=2 Linecode=1P_OH_AL_2/0_Rucina_0_416_0_2_2_2_2

New Line.l(r:p2udt1753lv-p2ulv1980) Units=km Length=0.014180200000000002 bus1=p2udt1753lv.1.2 bus2=p2ulv1980.1.2 switch=n enabled=y phases=2 Linecode=1P_OH_AL_2/0_Rucina_0_416_0_2_2_2_2

New Line.l(r:p2udt1753lv-p2ulv6605) Units=km Length=0.00899169 bus1=p2udt1753lv.1.2 bus2=p2ulv6605.1.2 switch=n enabled=y phases=2 Linecode=1P_OH_AL_2/0_Rucina_0_416_0_2_2_2_2

New Line.l(r:p2udm6370-p2ulv16629) Units=km Length=0.00985426 bus1=p2udm6370.1.2 bus2=p2ulv16629.1.2 switch=n enabled=y phases=2 Linecode=1P_OH_AL_2/0_Rucina_0_416_0_2_2_2_2

New Line.l(r:p2udm6370-p2udt1753lv) Units=km Length=0.0155156 bus1=p2udt1753lv.1.2 bus2=p2udm6370.1.2 switch=n enabled=y phases=2 Linecode=1P_OH_AL_2/0_Rucina_0_416_0_2_2_2_2

New Line.l(r:p2udt1754lv-p2ulv14554) Units=km Length=0.00923148 bus1=p2udt1754lv.1.2 bus2=p2ulv14554.1.2 switch=n enabled=y phases=2 Linecode=1P_UG_AL_4/0_Sweetbriar_0_416_0_2_2_2_2

New Line.l(r:p2udm6371-p2ulv1981) Units=km Length=0.0143656 bus1=p2udm6371.1.2 bus2=p2ulv1981.1.2 switch=n enabled=y phases=2 Linecode=1P_UG_AL_2/0_Converse_0_416_0_2_2_2_2

New Line.l(r:p2udm6371-p2udt1754lv) Units=km Length=0.00978003 bus1=p2udt1754lv.1.2 bus2=p2udm6371.1.2 switch=n enabled=y phases=2 Linecode=1P_UG_AL_2/0_Converse_0_416_0_2_2_2_2

New Line.l(r:p2udm6372-p2ulv3438) Units=km Length=0.012145 bus1=p2udm6372.1.2 bus2=p2ulv3438.1.2 switch=n enabled=y phases=2 Linecode=1P_UG_AL_4/0_Sweetbriar_0_416_0_2_2_2_2

New Line.l(r:p2udm6372-p2udt1754lv) Units=km Length=0.00978841 bus1=p2udt1754lv.1.2 bus2=p2udm6372.1.2 switch=n enabled=y phases=2 Linecode=1P_UG_AL_4/0_Sweetbriar_0_416_0_2_2_2_2

New Line.l(r:p2udt1933lv-p2ulv2204) Units=km Length=0.011678700000000002 bus1=p2udt1933lv.1.2 bus2=p2ulv2204.1.2 switch=n enabled=y phases=2 Linecode=1P_UG_AL_4/0_Sweetbriar_0_416_0_2_2_2_2

New Line.l(r:p2udm7002-p2ulv2205) Units=km Length=0.00890167 bus1=p2udm7002.1.2 bus2=p2ulv2205.1.2 switch=n enabled=y phases=2 Linecode=1P_UG_AL_2/0_Converse_0_416_0_2_2_2_2

New Line.l(r:p2udm7002-p2ulv14543) Units=km Length=0.00836488 bus1=p2udm7002.1.2 bus2=p2ulv14543.1.2 switch=n enabled=y phases=2 Linecode=1P_UG_AL_4/0_Sweetbriar_0_416_0_2_2_2_2

New Line.l(r:p2udm7002-p2udt1934lv) Units=km Length=0.0090986 bus1=p2udt1934lv.1.2 bus2=p2udm7002.1.2 switch=n enabled=y phases=2 Linecode=1P_UG_AL_4/0_Sweetbriar_0_416_0_2_2_2_2

New Line.l(r:p2udm7003-p2ulv9403) Units=km Length=0.00839101 bus1=p2udm7003.1.2 bus2=p2ulv9403.1.2 switch=n enabled=y phases=2 Linecode=1P_UG_AL_1/0_Brenau_0_416_0_2_2_2_2

New Line.l(r:p2udm7003-p2udt1934lv) Units=km Length=0.0090986 bus1=p2udt1934lv.1.2 bus2=p2udm7003.1.2 switch=n enabled=y phases=2 Linecode=1P_UG_AL_1/0_Brenau_0_416_0_2_2_2_2

New Line.l(r:p2udt2114lv-p2ulv10598) Units=km Length=0.0118026 bus1=p2udt2114lv.1.2 bus2=p2ulv10598.1.2 switch=n enabled=y phases=2 Linecode=1P_UG_AL_4/0_Sweetbriar_0_416_0_2_2_2_2

New Line.l(r:p2udm7610-p2ulv2460) Units=km Length=0.0123454 bus1=p2udm7610.1.2 bus2=p2ulv2460.1.2 switch=n enabled=y phases=2 Linecode=1P_UG_AL_2/0_Converse_0_416_0_2_2_2_2

New Line.l(r:p2udm7610-p2udt2114lv) Units=km Length=0.00978892 bus1=p2udt2114lv.1.2 bus2=p2udm7610.1.2 switch=n enabled=y phases=2 Linecode=1P_UG_AL_2/0_Converse_0_416_0_2_2_2_2

New Line.l(r:p2udt2123lv-p2ulv2473) Units=km Length=0.00989507 bus1=p2udt2123lv.1.2 bus2=p2ulv2473.1.2 switch=n enabled=y phases=2 Linecode=1P_OH_AL_2/0_Rucina_0_416_0_2_2_2_2

New Line.l(r:p2udt2306lv-p2ulv2721) Units=km Length=0.0203499 bus1=p2udt2306lv.1.2 bus2=p2ulv2721.1.2 switch=n enabled=y phases=2 Linecode=1P_UG_AL_4/0_Sweetbriar_0_416_0_2_2_2_2

New Line.l(r:p2udt2306lv-p2ulv3923) Units=km Length=0.0268479 bus1=p2udt2306lv.1.2 bus2=p2ulv3923.1.2 switch=n enabled=y phases=2 Linecode=1P_UG_AL_4/0_Sweetbriar_0_416_0_2_2_2_2

New Line.l(r:p2udt2306lv-p2ulv20017) Units=km Length=0.00983476 bus1=p2udt2306lv.1.2 bus2=p2ulv20017.1.2 switch=n enabled=y phases=2 Linecode=1P_UG_AL_1/0_Brenau_0_416_0_2_2_2_2

New Line.l(r:p2udt2482lv-p2ulv20015) Units=km Length=0.0112466 bus1=p2udt2482lv.1.2 bus2=p2ulv20015.1.2 switch=n enabled=y phases=2 Linecode=1P_UG_AL_4/0_Sweetbriar_0_416_0_2_2_2_2

New Line.l(r:p2udm8844-p2ulv2966) Units=km Length=0.0122182 bus1=p2udm8844.1.2 bus2=p2ulv2966.1.2 switch=n enabled=y phases=2 Linecode=1P_UG_AL_4/0_Sweetbriar_0_416_0_2_2_2_2

New Line.l(r:p2udm8844-p2udt2482lv) Units=km Length=0.00955278 bus1=p2udt2482lv.1.2 bus2=p2udm8844.1.2 switch=n enabled=y phases=2 Linecode=1P_UG_AL_4/0_Sweetbriar_0_416_0_2_2_2_2

New Line.l(r:p2udt2492lv-p2ulv2981) Units=km Length=0.0119702 bus1=p2udt2492lv.1.2 bus2=p2ulv2981.1.2 switch=n enabled=y phases=2 Linecode=1P_UG_AL_4/0_Sweetbriar_0_416_0_2_2_2_2

New Line.l(r:p2udm8880-p2ulv14131) Units=km Length=0.0118655 bus1=p2udm8880.1.2 bus2=p2ulv14131.1.2 switch=n enabled=y phases=2 Linecode=1P_UG_AL_4/0_Sweetbriar_0_416_0_2_2_2_2

New Line.l(r:p2udm8880-p2udt2492lv) Units=km Length=0.00978892 bus1=p2udt2492lv.1.2 bus2=p2udm8880.1.2 switch=n enabled=y phases=2 Linecode=1P_UG_AL_4/0_Sweetbriar_0_416_0_2_2_2_2

New Line.l(r:p2udm9317-p2ulv3207) Units=km Length=0.00935361 bus1=p2udm9317.1.2 bus2=p2ulv3207.1.2 switch=n enabled=y phases=2 Linecode=1P_UG_AL_1/0_Brenau_0_416_0_2_2_2_2

New Line.l(r:p2udm9317-p2ulv9866) Units=km Length=0.0123102 bus1=p2udm9317.1.2 bus2=p2ulv9866.1.2 switch=n enabled=y phases=2 Linecode=1P_UG_AL_4/0_Sweetbriar_0_416_0_2_2_2_2

New Line.l(r:p2udm9317-p2udt2639lv) Units=km Length=0.00534492 bus1=p2udt2639lv.1.2 bus2=p2udm9317.1.2 switch=n enabled=y phases=2 Linecode=1P_UG_AL_4/0_Sweetbriar_0_416_0_2_2_2_2

New Line.l(r:p2udm9319-p2ulv9626) Units=km Length=0.0105328 bus1=p2udm9319.1.2 bus2=p2ulv9626.1.2 switch=n enabled=y phases=2 Linecode=1P_UG_AL_1/0_Brenau_0_416_0_2_2_2_2

New Line.l(r:p2udm9318-p2ulv4656) Units=km Length=0.0122989 bus1=p2udm9318.1.2 bus2=p2ulv4656.1.2 switch=n enabled=y phases=2 Linecode=1P_UG_AL_2/0_Converse_0_416_0_2_2_2_2

New Line.l(r:p2udm9318-p2udm9319) Units=km Length=0.00855208 bus1=p2udm9319.1.2 bus2=p2udm9318.1.2 switch=n enabled=y phases=2 Linecode=1P_UG_AL_2/0_Converse_0_416_0_2_2_2_2

New Line.l(r:p2udm9319-p2udt2639lv) Units=km Length=0.00534379 bus1=p2udt2639lv.1.2 bus2=p2udm9319.1.2 switch=n enabled=y phases=2 Linecode=1P_UG_AL_4/0_Sweetbriar_0_416_0_2_2_2_2

New Line.l(r:p2udm10375-p2ulv3677) Units=km Length=0.011419 bus1=p2udm10375.1.2 bus2=p2ulv3677.1.2 switch=n enabled=y phases=2 Linecode=1P_UG_AL_4/0_Sweetbriar_0_416_0_2_2_2_2

New Line.l(r:p2udm10375-p2udt2936lv) Units=km Length=0.00894249 bus1=p2udt2936lv.1.2 bus2=p2udm10375.1.2 switch=n enabled=y phases=2 Linecode=1P_UG_AL_4/0_Sweetbriar_0_416_0_2_2_2_2

New Line.l(r:p2udm10376-p2ulv12483) Units=km Length=0.0112528 bus1=p2udm10376.1.2 bus2=p2ulv12483.1.2 switch=n enabled=y phases=2 Linecode=1P_UG_AL_1/0_Brenau_0_416_0_2_2_2_2

New Line.l(r:p2udm10376-p2udt2936lv) Units=km Length=0.00652559 bus1=p2udt2936lv.1.2 bus2=p2udm10376.1.2 switch=n enabled=y phases=2 Linecode=1P_UG_AL_1/0_Brenau_0_416_0_2_2_2_2

New Line.l(r:p2udt2940lv-p2ulv3686) Units=km Length=0.0214581 bus1=p2udt2940lv.1.2 bus2=p2ulv3686.1.2 switch=n enabled=y phases=2 Linecode=1P_OH_AL_2/0_Rucina_0_416_0_2_2_2_2

New Line.l(r:p2udt3097lv-p2ulv3918) Units=km Length=0.0126502 bus1=p2udt3097lv.1.2 bus2=p2ulv3918.1.2 switch=n enabled=y phases=2 Linecode=1P_UG_AL_4/0_Sweetbriar_0_416_0_2_2_2_2

New Line.l(r:p2udm10876-p2ulv3922) Units=km Length=0.0100098 bus1=p2udm10876.1.2 bus2=p2ulv3922.1.2 switch=n enabled=y phases=2 Linecode=1P_UG_AL_4/0_Sweetbriar_0_416_0_2_2_2_2

New Line.l(r:p2udm10876-p2udt3098lv) Units=km Length=0.0163315 bus1=p2udt3098lv.1.2 bus2=p2udm10876.1.2 switch=n enabled=y phases=2 Linecode=1P_UG_AL_4/0_Sweetbriar_0_416_0_2_2_2_2

New Line.l(r:p2udm10877-p2ulv21810) Units=km Length=0.008435220000000002 bus1=p2udm10877.1.2 bus2=p2ulv21810.1.2 switch=n enabled=y phases=2 Linecode=1P_UG_AL_2/0_Converse_0_416_0_2_2_2_2

New Line.l(r:p2udm10877-p2udt3098lv) Units=km Length=0.00726474 bus1=p2udt3098lv.1.2 bus2=p2udm10877.1.2 switch=n enabled=y phases=2 Linecode=1P_UG_AL_2/0_Converse_0_416_0_2_2_2_2

New Line.l(r:p2udt3234lv-p2ulv4157) Units=km Length=0.0108633 bus1=p2udt3234lv.1.2 bus2=p2ulv4157.1.2 switch=n enabled=y phases=2 Linecode=1P_OH_AL_2/0_Rucina_0_416_0_2_2_2_2

New Line.l(r:p2udm11282-p2ulv12478) Units=km Length=0.0104425 bus1=p2udm11282.1.2 bus2=p2ulv12478.1.2 switch=n enabled=y phases=2 Linecode=1P_OH_AL_2/0_Rucina_0_416_0_2_2_2_2

New Line.l(r:p2udm11282-p2ulv19107) Units=km Length=0.0116881 bus1=p2udm11282.1.2 bus2=p2ulv19107.1.2 switch=n enabled=y phases=2 Linecode=1P_OH_AL_2/0_Rucina_0_416_0_2_2_2_2

New Line.l(r:p2udm11282-p2udt3234lv) Units=km Length=0.0351878 bus1=p2udt3234lv.1.2 bus2=p2udm11282.1.2 switch=n enabled=y phases=2 Linecode=1P_OH_AL_4/0_Zuzara_0_416_0_2_2_2_2

New Line.l(r:p2udm11285-p2ulv22734) Units=km Length=0.00974295 bus1=p2udm11285.1.2 bus2=p2ulv22734.1.2 switch=n enabled=y phases=2 Linecode=1P_OH_AL_2/0_Rucina_0_416_0_2_2_2_2

New Line.l(r:p2udm11283-p2ulv12479) Units=km Length=0.0138621 bus1=p2udm11283.1.2 bus2=p2ulv12479.1.2 switch=n enabled=y phases=2 Linecode=1P_OH_AL_2/0_Rucina_0_416_0_2_2_2_2

New Line.l(r:p2udm11283-p2udm11285) Units=km Length=0.0153703 bus1=p2udm11285.1.2 bus2=p2udm11283.1.2 switch=n enabled=y phases=2 Linecode=1P_OH_AL_2/0_Rucina_0_416_0_2_2_2_2

New Line.l(r:p2udm11285-p2udt3234lv) Units=km Length=0.00743303 bus1=p2udt3234lv.1.2 bus2=p2udm11285.1.2 switch=n enabled=y phases=2 Linecode=1P_OH_AL_2/0_Rucina_0_416_0_2_2_2_2

New Line.l(r:p2udt3235lv-p2ulv4158) Units=km Length=0.00831883 bus1=p2udt3235lv.1.2 bus2=p2ulv4158.1.2 switch=n enabled=y phases=2 Linecode=1P_UG_AL_4/0_Sweetbriar_0_416_0_2_2_2_2

New Line.l(r:p2udm11287-p2ulv19819) Units=km Length=0.010467700000000002 bus1=p2udm11287.1.2 bus2=p2ulv19819.1.2 switch=n enabled=y phases=2 Linecode=1P_UG_AL_4/0_Sweetbriar_0_416_0_2_2_2_2

New Line.l(r:p2udm11287-p2udt3235lv) Units=km Length=0.00982923 bus1=p2udt3235lv.1.2 bus2=p2udm11287.1.2 switch=n enabled=y phases=2 Linecode=1P_UG_AL_4/0_Sweetbriar_0_416_0_2_2_2_2

New Line.l(r:p2udt3240lv-p2ulv4167) Units=km Length=0.0121254 bus1=p2udt3240lv.1.2 bus2=p2ulv4167.1.2 switch=n enabled=y phases=2 Linecode=1P_OH_AL_2/0_Rucina_0_416_0_2_2_2_2

New Line.l(r:p2udm11302-p2ulv6824) Units=km Length=0.012361 bus1=p2udm11302.1.2 bus2=p2ulv6824.1.2 switch=n enabled=y phases=2 Linecode=1P_OH_AL_2/0_Rucina_0_416_0_2_2_2_2

New Line.l(r:p2udm11302-p2udt3240lv) Units=km Length=0.0163505 bus1=p2udt3240lv.1.2 bus2=p2udm11302.1.2 switch=n enabled=y phases=2 Linecode=1P_OH_AL_2/0_Rucina_0_416_0_2_2_2_2

New Line.l(r:p2udm11303-p2ulv17109) Units=km Length=0.0116092 bus1=p2udm11303.1.2 bus2=p2ulv17109.1.2 switch=n enabled=y phases=2 Linecode=1P_OH_AL_2/0_Rucina_0_416_0_2_2_2_2

New Line.l(r:p2udm11303-p2udt3240lv) Units=km Length=0.0163505 bus1=p2udt3240lv.1.2 bus2=p2udm11303.1.2 switch=n enabled=y phases=2 Linecode=1P_OH_AL_2/0_Rucina_0_416_0_2_2_2_2

New Line.l(r:p2udm11767-p2ulv24076) Units=km Length=0.0138707 bus1=p2udm11767.1.2 bus2=p2ulv24076.1.2 switch=n enabled=y phases=2 Linecode=1P_OH_AL_2/0_Rucina_0_416_0_2_2_2_2

New Line.l(r:p2udm11766-p2ulv4414) Units=km Length=0.0088186 bus1=p2udm11766.1.2 bus2=p2ulv4414.1.2 switch=n enabled=y phases=2 Linecode=1P_OH_AL_2/0_Rucina_0_416_0_2_2_2_2

New Line.l(r:p2udm11766-p2udm11767) Units=km Length=0.0315833 bus1=p2udm11767.1.2 bus2=p2udm11766.1.2 switch=n enabled=y phases=2 Linecode=1P_OH_AL_4/0_Zuzara_0_416_0_2_2_2_2

New Line.l(r:p2udm11767-p2udt3385lv) Units=km Length=0.00905415 bus1=p2udt3385lv.1.2 bus2=p2udm11767.1.2 switch=n enabled=y phases=2 Linecode=1P_OH_AL_2/0_Rucina_0_416_0_2_0_2_2_2
