New Load.load_p5ulv71 conn=wye bus1=p5ulv71.1.2 kV=0.2080002494301389 Vminpu=0.8 Vmaxpu=1.2 model=1 kW=11.6601 kvar=2.3676842888585536 Phases=2

New Load.load_p5ulv255 conn=wye bus1=p5ulv255.1.2 kV=0.2080002494301389 Vminpu=0.8 Vmaxpu=1.2 model=1 kW=17.5302 kvar=3.5596589326462222 Phases=2

New Load.load_p5ulv260 conn=wye bus1=p5ulv260.1.2 kV=0.2080002494301389 Vminpu=0.8 Vmaxpu=1.2 model=1 kW=16.8302 kvar=3.417517870202419 Phases=2

New Load.load_p5ulv831 conn=wye bus1=p5ulv831.1.2 kV=0.2080002494301389 Vminpu=0.8 Vmaxpu=1.2 model=1 kW=12.1001 kvar=2.457030099537515 Phases=2

New Load.load_p5ulv834 conn=wye bus1=p5ulv834.1.2.3 kV=0.48 Vminpu=0.8 Vmaxpu=1.2 model=1 kW=49.9205 kvar=10.136789868179811 Phases=3

New Load.load_p5ulv835 conn=wye bus1=p5ulv835.1.2 kV=0.2080002494301389 Vminpu=0.8 Vmaxpu=1.2 model=1 kW=12.420100000000001 kvar=2.5220088709403967 Phases=2

New Load.load_p5ulv836 conn=wye bus1=p5ulv836.1.2.3 kV=0.48 Vminpu=0.8 Vmaxpu=1.2 model=1 kW=35.7104 kvar=7.251305994704547 Phases=3

New Load.load_p5ulv983 conn=wye bus1=p5ulv983.1.2.3 kV=0.48 Vminpu=0.8 Vmaxpu=1.2 model=1 kW=42.760400000000004 kvar=8.682869552174278 Phases=3

New Load.load_p5ulv1559 conn=wye bus1=p5ulv1559.1.2 kV=0.2080002494301389 Vminpu=0.8 Vmaxpu=1.2 model=1 kW=17.3902 kvar=3.5312307201574615 Phases=2

New Load.load_p5ulv1564 conn=wye bus1=p5ulv1564.1.2 kV=0.2080002494301389 Vminpu=0.8 Vmaxpu=1.2 model=1 kW=11.1901 kvar=3.68197734939448 Phases=2

New Load.load_p5ulv1565 conn=wye bus1=p5ulv1565.1.2 kV=0.2080002494301389 Vminpu=0.8 Vmaxpu=1.2 model=1 kW=2.04002 kvar=0.6697979609073863 Phases=2

New Load.load_p5ulv1913 conn=wye bus1=p5ulv1913.1.2 kV=0.2080002494301389 Vminpu=0.8 Vmaxpu=1.2 model=1 kW=15.9102 kvar=3.230703902419135 Phases=2

New Load.load_p5ulv1918 conn=wye bus1=p5ulv1918.1.2 kV=0.2080002494301389 Vminpu=0.8 Vmaxpu=1.2 model=1 kW=17.7102 kvar=3.596209491560343 Phases=2

New Load.load_p5umv4 conn=wye bus1=p5umv4.1.2.3 kV=12.47 Vminpu=0.8 Vmaxpu=1.2 model=1 kW=892.4989999999999 kvar=181.2296515571882 Phases=3

New Load.load_p5ulv1927 conn=wye bus1=p5ulv1927.1.2.3 kV=0.48 Vminpu=0.8 Vmaxpu=1.2 model=1 kW=32.2203 kvar=6.542610963225808 Phases=3

New Load.load_p5ulv1928 conn=wye bus1=p5ulv1928.1.2.3 kV=0.48 Vminpu=0.8 Vmaxpu=1.2 model=1 kW=23.630200000000002 kvar=4.7983167625136485 Phases=3

New Load.load_p5ulv2310 conn=wye bus1=p5ulv2310.1.2.3 kV=0.48 Vminpu=0.8 Vmaxpu=1.2 model=1 kW=20.9102 kvar=6.872850376111065 Phases=3

New Load.load_p5ulv2489 conn=wye bus1=p5ulv2489.1.2 kV=0.2080002494301389 Vminpu=0.8 Vmaxpu=1.2 model=1 kW=1.51002 kvar=0.30976883991827064 Phases=2

New Load.load_p5ulv2644 conn=wye bus1=p5ulv2644.1.2.3 kV=0.48 Vminpu=0.8 Vmaxpu=1.2 model=1 kW=35.78039999999999 kvar=7.265520100948927 Phases=3

New Load.load_p5ulv2645 conn=wye bus1=p5ulv2645.1.2.3 kV=0.48 Vminpu=0.8 Vmaxpu=1.2 model=1 kW=29.830299999999998 kvar=6.057300764310537 Phases=3

New Load.load_p5ulv2678 conn=wye bus1=p5ulv2678.1.2.3 kV=0.48 Vminpu=0.8 Vmaxpu=1.2 model=1 kW=20.1502 kvar=4.091672623507313 Phases=3

New Load.load_p5ulv2842 conn=wye bus1=p5ulv2842.1.2.3 kV=0.48 Vminpu=0.8 Vmaxpu=1.2 model=1 kW=31.290300000000002 kvar=6.353766408836184 Phases=3

New Load.load_p5ulv3603 conn=wye bus1=p5ulv3603.1.2 kV=0.2080002494301389 Vminpu=0.8 Vmaxpu=1.2 model=1 kW=6.98007 kvar=1.4210117756404663 Phases=2

New Load.load_p5ulv4139 conn=wye bus1=p5ulv4139.1.2 kV=0.2080002494301389 Vminpu=0.8 Vmaxpu=1.2 model=1 kW=4.450040000000001 kvar=1.4594967629095847 Phases=2

New Load.load_p5ulv4338 conn=wye bus1=p5ulv4338.1.2.3 kV=0.48 Vminpu=0.8 Vmaxpu=1.2 model=1 kW=19.9202 kvar=4.0449691315614915 Phases=3

New Load.load_p5ulv5074 conn=wye bus1=p5ulv5074.1.2 kV=0.2080002494301389 Vminpu=0.8 Vmaxpu=1.2 model=1 kW=19.4002 kvar=3.9393786280318106 Phases=2

New Load.load_p5ulv5238 conn=wye bus1=p5ulv5238.1.2.3 kV=0.48 Vminpu=0.8 Vmaxpu=1.2 model=1 kW=37.3304 kvar=7.580261024931632 Phases=3

New Load.load_p5ulv5260 conn=wye bus1=p5ulv5260.1.2 kV=0.2080002494301389 Vminpu=0.8 Vmaxpu=1.2 model=1 kW=14.180100000000001 kvar=2.879392113656244 Phases=2

New Load.load_p5ulv5453 conn=wye bus1=p5ulv5453.1.2 kV=0.2080002494301389 Vminpu=0.8 Vmaxpu=1.2 model=1 kW=10.6301 kvar=2.158533868405529 Phases=2

New Load.load_p5ulv5457 conn=wye bus1=p5ulv5457.1.2.3 kV=0.48 Vminpu=0.8 Vmaxpu=1.2 model=1 kW=41.9904 kvar=8.526514383486093 Phases=3

New Load.load_p5ulv5458 conn=wye bus1=p5ulv5458.1.2 kV=0.2080002494301389 Vminpu=0.8 Vmaxpu=1.2 model=1 kW=10.340100000000001 kvar=2.0996468568216677 Phases=2

New Load.load_p5ulv5643 conn=wye bus1=p5ulv5643.1.2 kV=0.2080002494301389 Vminpu=0.8 Vmaxpu=1.2 model=1 kW=15.2902 kvar=3.096797994329704 Phases=2

New Load.load_p5ulv5645 conn=wye bus1=p5ulv5645.1.2 kV=0.2080002494301389 Vminpu=0.8 Vmaxpu=1.2 model=1 kW=11.8601 kvar=2.408296020985354 Phases=2

New Load.load_p5ulv5647 conn=wye bus1=p5ulv5647.1.2 kV=0.2080002494301389 Vminpu=0.8 Vmaxpu=1.2 model=1 kW=14.8901 kvar=3.023563762706387 Phases=2

New Load.load_p5ulv5851 conn=wye bus1=p5ulv5851.1.2 kV=0.2080002494301389 Vminpu=0.8 Vmaxpu=1.2 model=1 kW=9.5301 kvar=1.940150216692842 Phases=2

New Load.load_p5ulv6226 conn=wye bus1=p5ulv6226.1.2 kV=0.2080002494301389 Vminpu=0.8 Vmaxpu=1.2 model=1 kW=6.69007 kvar=1.358476653747733 Phases=2

New Load.load_p5ulv6394 conn=wye bus1=p5ulv6394.1.2 kV=0.2080002494301389 Vminpu=0.8 Vmaxpu=1.2 model=1 kW=15.5802 kvar=3.163694544409913 Phases=2

New Load.load_p5ulv6395 conn=wye bus1=p5ulv6395.1.2 kV=0.2080002494301389 Vminpu=0.8 Vmaxpu=1.2 model=1 kW=17.0002 kvar=3.4520378425102 Phases=2

New Load.load_p5ulv6396 conn=wye bus1=p5ulv6396.1.2.3 kV=0.48 Vminpu=0.8 Vmaxpu=1.2 model=1 kW=19.7702 kvar=4.014510332466392 Phases=3

New Load.load_p5ulv6397 conn=wye bus1=p5ulv6397.1.2 kV=0.2080002494301389 Vminpu=0.8 Vmaxpu=1.2 model=1 kW=15.5002 kvar=3.1474498515591933 Phases=2

New Load.load_p5ulv6399 conn=wye bus1=p5ulv6399.1.2 kV=0.2080002494301389 Vminpu=0.8 Vmaxpu=1.2 model=1 kW=11.2401 kvar=2.2823996513922715 Phases=2

New Load.load_p5ulv6754 conn=wye bus1=p5ulv6754.1.2 kV=0.2080002494301389 Vminpu=0.8 Vmaxpu=1.2 model=1 kW=15.8702 kvar=3.222581555993775 Phases=2

New Load.load_p5ulv7088 conn=wye bus1=p5ulv7088.1.2 kV=0.2080002494301389 Vminpu=0.8 Vmaxpu=1.2 model=1 kW=6.60007 kvar=1.3402013742906727 Phases=2

New Load.load_p5ulv8048 conn=wye bus1=p5ulv8048.1.2 kV=0.2080002494301389 Vminpu=0.8 Vmaxpu=1.2 model=1 kW=3.08003 kvar=0.6302452033833459 Phases=2

New Load.load_p5ulv8049 conn=wye bus1=p5ulv8049.1.2 kV=0.2080002494301389 Vminpu=0.8 Vmaxpu=1.2 model=1 kW=8.55009 kvar=1.7406384997264774 Phases=2

New Load.load_p5ulv8240 conn=wye bus1=p5ulv8240.1.2.3 kV=0.48 Vminpu=0.8 Vmaxpu=1.2 model=1 kW=51.490500000000004 kvar=10.455591965375197 Phases=3

New Load.load_p5ulv8577 conn=wye bus1=p5ulv8577.1.2.3 kV=0.48 Vminpu=0.8 Vmaxpu=1.2 model=1 kW=87.3809 kvar=28.720712926223722 Phases=3

New Load.load_p5ulv8791 conn=wye bus1=p5ulv8791.1.2 kV=0.2080002494301389 Vminpu=0.8 Vmaxpu=1.2 model=1 kW=8.31008 kvar=1.6917769501615778 Phases=2

New Load.load_p5ulv8997 conn=wye bus1=p5ulv8997.1.2 kV=0.2080002494301389 Vminpu=0.8 Vmaxpu=1.2 model=1 kW=1.02001 kvar=0.3399434706953838 Phases=2

New Load.load_p5ulv10107 conn=wye bus1=p5ulv10107.1.2.3 kV=0.48 Vminpu=0.8 Vmaxpu=1.2 model=1 kW=23.6702 kvar=4.806439108939008 Phases=3

New Load.load_p5ulv10114 conn=wye bus1=p5ulv10114.1.2.3 kV=0.48 Vminpu=0.8 Vmaxpu=1.2 model=1 kW=120.461 kvar=24.46064931863279 Phases=3

New Load.load_p5ulv10115 conn=wye bus1=p5ulv10115.1.2 kV=0.2080002494301389 Vminpu=0.8 Vmaxpu=1.2 model=1 kW=11.0801 kvar=2.249910265690831 Phases=2

New Load.load_p5ulv10475 conn=wye bus1=p5ulv10475.1.2 kV=0.2080002494301389 Vminpu=0.8 Vmaxpu=1.2 model=1 kW=11.9001 kvar=2.4226379149921295 Phases=2

New Load.load_p5ulv10894 conn=wye bus1=p5ulv10894.1.2.3 kV=0.48 Vminpu=0.8 Vmaxpu=1.2 model=1 kW=21.1502 kvar=4.294731284141317 Phases=3

New Load.load_p5ulv11045 conn=wye bus1=p5ulv11045.1.2.3 kV=0.48 Vminpu=0.8 Vmaxpu=1.2 model=1 kW=59.8006 kvar=12.143029741109837 Phases=3

New Load.load_p5ulv11071 conn=wye bus1=p5ulv11071.1.2 kV=0.2080002494301389 Vminpu=0.8 Vmaxpu=1.2 model=1 kW=5.770060000000001 kvar=1.1686380972885935 Phases=2

New Load.load_p5ulv11072 conn=wye bus1=p5ulv11072.1.2 kV=0.2080002494301389 Vminpu=0.8 Vmaxpu=1.2 model=1 kW=3.7500400000000003 kvar=1.2299150661075986 Phases=2

New Load.load_p5ulv11447 conn=wye bus1=p5ulv11447.1.2 kV=0.2080002494301389 Vminpu=0.8 Vmaxpu=1.2 model=1 kW=11.3701 kvar=2.3087972772746923 Phases=2

New Load.load_p5ulv11655 conn=wye bus1=p5ulv11655.1.2 kV=0.2080002494301389 Vminpu=0.8 Vmaxpu=1.2 model=1 kW=8.22008 kvar=1.6691584351043662 Phases=2

New Load.load_p5ulv11656 conn=wye bus1=p5ulv11656.1.2.3 kV=0.48 Vminpu=0.8 Vmaxpu=1.2 model=1 kW=43.6204 kvar=8.85750000031952 Phases=3

New Load.load_p5ulv11657 conn=wye bus1=p5ulv11657.1.2.3 kV=0.48 Vminpu=0.8 Vmaxpu=1.2 model=1 kW=55.6606 kvar=11.302366886085059 Phases=3

New Load.load_p5ulv11659 conn=wye bus1=p5ulv11659.1.2 kV=0.2080002494301389 Vminpu=0.8 Vmaxpu=1.2 model=1 kW=13.6601 kvar=4.489857745153788 Phases=2

New Load.load_p5ulv11660 conn=wye bus1=p5ulv11660.1.2.3 kV=0.48 Vminpu=0.8 Vmaxpu=1.2 model=1 kW=72.2807 kvar=14.677222131688271 Phases=3

New Load.load_p5ulv11844 conn=wye bus1=p5ulv11844.1.2 kV=0.2080002494301389 Vminpu=0.8 Vmaxpu=1.2 model=1 kW=14.8801 kvar=3.0215331761000472 Phases=2

New Load.load_p5ulv12560 conn=wye bus1=p5ulv12560.1.2.3 kV=0.48 Vminpu=0.8 Vmaxpu=1.2 model=1 kW=20.530199999999997 kvar=4.168834914548235 Phases=3

New Load.load_p5ulv12581 conn=wye bus1=p5ulv12581.1.2 kV=0.2080002494301389 Vminpu=0.8 Vmaxpu=1.2 model=1 kW=13.9101 kvar=2.817279681163465 Phases=2

New Load.load_p5ulv12582 conn=wye bus1=p5ulv12582.1.2 kV=0.2080002494301389 Vminpu=0.8 Vmaxpu=1.2 model=1 kW=7.10007 kvar=1.4417307046076748 Phases=2

New Load.load_p5ulv12787 conn=wye bus1=p5ulv12787.1.2 kV=0.2080002494301389 Vminpu=0.8 Vmaxpu=1.2 model=1 kW=8.480080000000001 kvar=1.7219536868692071 Phases=2

New Load.load_p5ulv12788 conn=wye bus1=p5ulv12788.1.2.3 kV=0.48 Vminpu=0.8 Vmaxpu=1.2 model=1 kW=264.283 kvar=53.66495200833656 Phases=3

New Load.load_p5ulv12789 conn=wye bus1=p5ulv12789.1.2 kV=0.2080002494301389 Vminpu=0.8 Vmaxpu=1.2 model=1 kW=9.5301 kvar=1.940150216692842 Phases=2

New Load.load_p5ulv12975 conn=wye bus1=p5ulv12975.1.2 kV=0.2080002494301389 Vminpu=0.8 Vmaxpu=1.2 model=1 kW=11.9601 kvar=2.4286018870487553 Phases=2

New Load.load_p5ulv13351 conn=wye bus1=p5ulv13351.1.2 kV=0.2080002494301389 Vminpu=0.8 Vmaxpu=1.2 model=1 kW=7.11007 kvar=1.4400367892861963 Phases=2

New Load.load_p5ulv13352 conn=wye bus1=p5ulv13352.1.2 kV=0.2080002494301389 Vminpu=0.8 Vmaxpu=1.2 model=1 kW=6.00006 kvar=1.2215000586741016 Phases=2

New Load.load_p5ulv13538 conn=wye bus1=p5ulv13538.1.2 kV=0.2080002494301389 Vminpu=0.8 Vmaxpu=1.2 model=1 kW=15.060200000000002 kvar=3.058104040880232 Phases=2

New Load.load_p5ulv13539 conn=wye bus1=p5ulv13539.1.2 kV=0.2080002494301389 Vminpu=0.8 Vmaxpu=1.2 model=1 kW=15.4202 kvar=3.131205158708473 Phases=2

New Load.load_p5ulv13736 conn=wye bus1=p5ulv13736.1.2 kV=0.2080002494301389 Vminpu=0.8 Vmaxpu=1.2 model=1 kW=9.22009 kvar=1.8722191263249766 Phases=2

New Load.load_p5ulv14254 conn=wye bus1=p5ulv14254.1.2.3 kV=0.48 Vminpu=0.8 Vmaxpu=1.2 model=1 kW=22.680200000000003 kvar=7.446569990966608 Phases=3

New Load.load_p5ulv14415 conn=wye bus1=p5ulv14415.1.2.3 kV=0.48 Vminpu=0.8 Vmaxpu=1.2 model=1 kW=26.910300000000003 kvar=5.464369475259246 Phases=3

New Load.load_p5ulv14786 conn=wye bus1=p5ulv14786.1.2.3 kV=0.48 Vminpu=0.8 Vmaxpu=1.2 model=1 kW=26.010300000000004 kvar=5.281616680688642 Phases=3

New Load.load_p5ulv15115 conn=wye bus1=p5ulv15115.1.2 kV=0.2080002494301389 Vminpu=0.8 Vmaxpu=1.2 model=1 kW=15.5202 kvar=5.1012430491969925 Phases=2

New Load.load_p5ulv15118 conn=wye bus1=p5ulv15118.1.2.3 kV=0.48 Vminpu=0.8 Vmaxpu=1.2 model=1 kW=140.871 kvar=28.605076582172817 Phases=3

New Load.load_p5ulv15464 conn=wye bus1=p5ulv15464.1.2.3 kV=0.48 Vminpu=0.8 Vmaxpu=1.2 model=1 kW=21.8302 kvar=4.432811173372441 Phases=3

New Load.load_p5ulv15491 conn=wye bus1=p5ulv15491.1.2 kV=0.2080002494301389 Vminpu=0.8 Vmaxpu=1.2 model=1 kW=4.61005 kvar=0.9409239980998833 Phases=2

New Load.load_p5ulv15704 conn=wye bus1=p5ulv15704.1.2.3 kV=0.48 Vminpu=0.8 Vmaxpu=1.2 model=1 kW=24.780200000000004 kvar=5.031834222242754 Phases=3

New Load.load_p5ulv15706 conn=wye bus1=p5ulv15706.1.2 kV=0.2080002494301389 Vminpu=0.8 Vmaxpu=1.2 model=1 kW=15.5002 kvar=3.1474498515591933 Phases=2

New Load.load_p5ulv15707 conn=wye bus1=p5ulv15707.1.2.3 kV=0.48 Vminpu=0.8 Vmaxpu=1.2 model=1 kW=22.8202 kvar=4.633839247400105 Phases=3

New Load.load_p5ulv15708 conn=wye bus1=p5ulv15708.1.2 kV=0.2080002494301389 Vminpu=0.8 Vmaxpu=1.2 model=1 kW=17.0502 kvar=3.4621907755419 Phases=2

New Load.load_p5ulv15709 conn=wye bus1=p5ulv15709.1.2.3 kV=0.48 Vminpu=0.8 Vmaxpu=1.2 model=1 kW=26.280300000000004 kvar=5.3364425190598235 Phases=3

New Load.load_p5ulv16401 conn=wye bus1=p5ulv16401.1.2.3 kV=0.48 Vminpu=0.8 Vmaxpu=1.2 model=1 kW=197.402 kvar=40.08418572647371 Phases=3

New Load.load_p5ulv16402 conn=wye bus1=p5ulv16402.1.2.3 kV=0.48 Vminpu=0.8 Vmaxpu=1.2 model=1 kW=229.37200000000004 kvar=75.39093057308621 Phases=3

New Load.load_p5ulv16585 conn=wye bus1=p5ulv16585.1.2 kV=0.2080002494301389 Vminpu=0.8 Vmaxpu=1.2 model=1 kW=8.94009 kvar=1.8200352095731958 Phases=2

New Load.load_p5ulv16785 conn=wye bus1=p5ulv16785.1.2 kV=0.2080002494301389 Vminpu=0.8 Vmaxpu=1.2 model=1 kW=9.9501 kvar=2.0204539791744063 Phases=2

New Load.load_p5ulv17720 conn=wye bus1=p5ulv17720.1.2 kV=0.2080002494301389 Vminpu=0.8 Vmaxpu=1.2 model=1 kW=5.14005 kvar=1.0410391316499712 Phases=2

New Load.load_p5ulv17724 conn=wye bus1=p5ulv17724.1.2 kV=0.2080002494301389 Vminpu=0.8 Vmaxpu=1.2 model=1 kW=13.0601 kvar=2.65196641374616 Phases=2

New Load.load_p5ulv17915 conn=wye bus1=p5ulv17915.1.2 kV=0.2080002494301389 Vminpu=0.8 Vmaxpu=1.2 model=1 kW=10.6101 kvar=2.1489147558329895 Phases=2

New Load.load_p5ulv18080 conn=wye bus1=p5ulv18080.1.2 kV=0.2080002494301389 Vminpu=0.8 Vmaxpu=1.2 model=1 kW=17.0402 kvar=3.4601601889355593 Phases=2

New Load.load_p5ulv18259 conn=wye bus1=p5ulv18259.1.2 kV=0.2080002494301389 Vminpu=0.8 Vmaxpu=1.2 model=1 kW=7.9200800000000005 kvar=1.6082408369141645 Phases=2

New Load.load_p5ulv18276 conn=wye bus1=p5ulv18276.1.2 kV=0.2080002494301389 Vminpu=0.8 Vmaxpu=1.2 model=1 kW=12.7801 kvar=2.5884153279442415 Phases=2

New Load.load_p5ulv18278 conn=wye bus1=p5ulv18278.1.2 kV=0.2080002494301389 Vminpu=0.8 Vmaxpu=1.2 model=1 kW=10.4001 kvar=2.111830376459708 Phases=2

New Load.load_p5ulv18281 conn=wye bus1=p5ulv18281.1.2.3 kV=0.48 Vminpu=0.8 Vmaxpu=1.2 model=1 kW=69.2207 kvar=14.055862630148223 Phases=3

New Load.load_p5ulv18282 conn=wye bus1=p5ulv18282.1.2 kV=0.2080002494301389 Vminpu=0.8 Vmaxpu=1.2 model=1 kW=12.3001 kvar=2.4976418316643163 Phases=2

New Load.load_p5ulv18453 conn=wye bus1=p5ulv18453.1.2.3 kV=0.48 Vminpu=0.8 Vmaxpu=1.2 model=1 kW=28.030300000000004 kvar=5.6917951751693305 Phases=3

New Load.load_p5ulv18661 conn=wye bus1=p5ulv18661.1.2 kV=0.2080002494301389 Vminpu=0.8 Vmaxpu=1.2 model=1 kW=9.05009 kvar=1.837699154017196 Phases=2

New Load.load_p5ulv18662 conn=wye bus1=p5ulv18662.1.2.3 kV=0.48 Vminpu=0.8 Vmaxpu=1.2 model=1 kW=36.8704 kvar=7.48685404103999 Phases=3

New Load.load_p5ulv18857 conn=wye bus1=p5ulv18857.1.2.3 kV=0.48 Vminpu=0.8 Vmaxpu=1.2 model=1 kW=97.381 kvar=19.774055431199972 Phases=3

New Load.load_p5ulv18858 conn=wye bus1=p5ulv18858.1.2.3 kV=0.48 Vminpu=0.8 Vmaxpu=1.2 model=1 kW=34.3503 kvar=6.975125910376235 Phases=3

New Load.load_p5ulv18859 conn=wye bus1=p5ulv18859.1.2 kV=0.2080002494301389 Vminpu=0.8 Vmaxpu=1.2 model=1 kW=6.34006 kvar=1.2907177031558559 Phases=2

New Load.load_p5ulv77694 conn=wye bus1=p5ulv77694.1.2 kV=0.2080002494301389 Vminpu=0.8 Vmaxpu=1.2 model=1 kW=11.0001 kvar=2.2279033379175006 Phases=2

New Load.load_p5ulv77951 conn=wye bus1=p5ulv77951.1.2 kV=0.2080002494301389 Vminpu=0.8 Vmaxpu=1.2 model=1 kW=2.65003 kvar=0.5394965717823037 Phases=2

New Load.load_p5ulv77978 conn=wye bus1=p5ulv77978.1.2 kV=0.2080002494301389 Vminpu=0.8 Vmaxpu=1.2 model=1 kW=2.45002 kvar=0.500055880917707 Phases=2

New Load.load_p5ulv78268 conn=wye bus1=p5ulv78268.1.2 kV=0.2080002494301389 Vminpu=0.8 Vmaxpu=1.2 model=1 kW=14.4901 kvar=2.9423402984527858 Phases=2

