New Line.l(r:p4udt417lv-p4ulv423) Units=km Length=0.00822835 bus1=p4udt417lv.1.2 bus2=p4ulv423.1.2 switch=n enabled=y phases=2 Linecode=1P_OH_AL_2/0_Rucina_0_416_0_2_2_2_2

New Line.l(r:p4udt418lv-p4ulv424) Units=km Length=0.0175614 bus1=p4udt418lv.1.2 bus2=p4ulv424.1.2 switch=n enabled=y phases=2 Linecode=1P_OH_AL_2/0_Rucina_0_416_0_2_2_2_2

New Line.l(r:p4udt419lv-p4ulv8409) Units=km Length=0.0276228 bus1=p4udt419lv.1.2 bus2=p4ulv8409.1.2 switch=n enabled=y phases=2 Linecode=1P_OH_AL_4/0_Zuzara_0_416_0_2_2_2_2

New Line.l(r:p4udm1125-p4ulv425) Units=km Length=0.0276269 bus1=p4udm1125.1.2 bus2=p4ulv425.1.2 switch=n enabled=y phases=2 Linecode=1P_OH_AL_4/0_Zuzara_0_416_0_2_2_2_2

New Line.l(r:p4udm1125-p4udt419lv) Units=km Length=0.0464575 bus1=p4udt419lv.1.2 bus2=p4udm1125.1.2 switch=n enabled=y phases=2 Linecode=1P_OH_AL_4/0_Zuzara_0_416_0_2_2_2_2

New Line.l(r:p4udm1127-p4ulv15717) Units=km Length=0.0249579 bus1=p4udm1127.1.2 bus2=p4ulv15717.1.2 switch=n enabled=y phases=2 Linecode=1P_OH_AL_2/0_Rucina_0_416_0_2_2_2_2

New Line.l(r:p4udm1128-p4ulv31851) Units=km Length=0.0193992 bus1=p4udm1128.1.2 bus2=p4ulv31851.1.2 switch=n enabled=y phases=2 Linecode=1P_OH_AL_2/0_Rucina_0_416_0_2_2_2_2

New Line.l(r:p4udm1127-p4udm1128) Units=km Length=0.0177336 bus1=p4udm1127.1.2 bus2=p4udm1128.1.2 switch=n enabled=y phases=2 Linecode=1P_OH_AL_2/0_Rucina_0_416_0_2_2_2_2

New Line.l(r:p4udm1127-p4udt419lv) Units=km Length=0.0177432 bus1=p4udt419lv.1.2 bus2=p4udm1127.1.2 switch=n enabled=y phases=2 Linecode=1P_OH_AL_2/0_Rucina_0_416_0_2_2_2_2

New Line.l(r:p4udm1129-p4ulv426) Units=km Length=0.023575300000000004 bus1=p4udm1129.1.2 bus2=p4ulv426.1.2 switch=n enabled=y phases=2 Linecode=1P_OH_AL_2/0_Rucina_0_416_0_2_2_2_2

New Line.l(r:p4udm1129-p4ulv33963) Units=km Length=0.008729320000000002 bus1=p4udm1129.1.2 bus2=p4ulv33963.1.2 switch=n enabled=y phases=2 Linecode=1P_OH_AL_2/0_Rucina_0_416_0_2_2_2_2

New Line.l(r:p4udm1129-p4udt420lv) Units=km Length=0.0176101 bus1=p4udt420lv.1.2 bus2=p4udm1129.1.2 switch=n enabled=y phases=2 Linecode=1P_OH_AL_2/0_Rucina_0_416_0_2_2_2_2

New Line.l(r:p4udm1131-p4ulv43605) Units=km Length=0.0236892 bus1=p4udm1131.1.2 bus2=p4ulv43605.1.2 switch=n enabled=y phases=2 Linecode=1P_OH_AL_2/0_Rucina_0_416_0_2_2_2_2

New Line.l(r:p4udm1131-p4udt420lv) Units=km Length=0.0176101 bus1=p4udt420lv.1.2 bus2=p4udm1131.1.2 switch=n enabled=y phases=2 Linecode=1P_OH_AL_2/0_Rucina_0_416_0_2_2_2_2

New Line.l(r:p4udt421lv-p4ulv427) Units=km Length=0.0174441 bus1=p4udt421lv.1.2 bus2=p4ulv427.1.2 switch=n enabled=y phases=2 Linecode=1P_UG_AL_1/0_Brenau_0_416_0_2_2_2_2

New Line.l(r:p4udm1133-p4ulv25893) Units=km Length=0.0191904 bus1=p4udm1133.1.2 bus2=p4ulv25893.1.2 switch=n enabled=y phases=2 Linecode=1P_UG_AL_1/0_Brenau_0_416_0_2_2_2_2

New Line.l(r:p4udm1133-p4udt421lv) Units=km Length=0.00992359 bus1=p4udt421lv.1.2 bus2=p4udm1133.1.2 switch=n enabled=y phases=2 Linecode=1P_UG_AL_1/0_Brenau_0_416_0_2_2_2_2

New Line.l(r:p4udt780lv-p4ulv795) Units=km Length=0.0447893 bus1=p4udt780lv.1.2 bus2=p4ulv795.1.2 switch=n enabled=y phases=2 Linecode=1P_OH_AL_4/0_Zuzara_0_416_0_2_2_2_2

New Line.l(r:p4udm2132-p4ulv798) Units=km Length=0.0194013 bus1=p4udm2132.1.2 bus2=p4ulv798.1.2 switch=n enabled=y phases=2 Linecode=1P_UG_AL_1/0_Brenau_0_416_0_2_2_2_2

New Line.l(r:p4udm2132-p4ulv10474) Units=km Length=0.014813900000000001 bus1=p4udm2132.1.2 bus2=p4ulv10474.1.2 switch=n enabled=y phases=2 Linecode=1P_UG_AL_1/0_Brenau_0_416_0_2_2_2_2

New Line.l(r:p4udm2132-p4udt783lv) Units=km Length=0.00976066 bus1=p4udt783lv.1.2 bus2=p4udm2132.1.2 switch=n enabled=y phases=2 Linecode=1P_UG_AL_4/0_Sweetbriar_0_416_0_2_2_2_2

New Line.l(r:p4udm2133-p4ulv7933) Units=km Length=0.0169018 bus1=p4udm2133.1.2 bus2=p4ulv7933.1.2 switch=n enabled=y phases=2 Linecode=1P_UG_AL_1/0_Brenau_0_416_0_2_2_2_2

New Line.l(r:p4udm2133-p4ulv20403) Units=km Length=0.0177597 bus1=p4udm2133.1.2 bus2=p4ulv20403.1.2 switch=n enabled=y phases=2 Linecode=1P_UG_AL_1/0_Brenau_0_416_0_2_2_2_2

New Line.l(r:p4udm2133-p4udt783lv) Units=km Length=0.00976918 bus1=p4udt783lv.1.2 bus2=p4udm2133.1.2 switch=n enabled=y phases=2 Linecode=1P_UG_AL_4/0_Sweetbriar_0_416_0_2_2_2_2

New Line.l(r:p4udm2136-p4ulv799) Units=km Length=0.0195274 bus1=p4udm2136.1.2 bus2=p4ulv799.1.2 switch=n enabled=y phases=2 Linecode=1P_UG_AL_1/0_Brenau_0_416_0_2_2_2_2

New Line.l(r:p4udm2138-p4ulv38162) Units=km Length=0.0142189 bus1=p4udm2138.1.2 bus2=p4ulv38162.1.2 switch=n enabled=y phases=2 Linecode=1P_UG_AL_1/0_Brenau_0_416_0_2_2_2_2

New Line.l(r:p4udm2136-p4udm2138) Units=km Length=0.01932 bus1=p4udm2136.1.2 bus2=p4udm2138.1.2 switch=n enabled=y phases=2 Linecode=1P_UG_AL_1/0_Brenau_0_416_0_2_2_2_2

New Line.l(r:p4udm2136-p4udt784lv) Units=km Length=0.00879714 bus1=p4udt784lv.1.2 bus2=p4udm2136.1.2 switch=n enabled=y phases=2 Linecode=1P_UG_AL_2/0_Converse_0_416_0_2_2_2_2

New Line.l(r:p4udm2137-p4ulv7495) Units=km Length=0.011890400000000002 bus1=p4udm2137.1.2 bus2=p4ulv7495.1.2 switch=n enabled=y phases=2 Linecode=1P_UG_AL_1/0_Brenau_0_416_0_2_2_2_2

New Line.l(r:p4udm2137-p4udt784lv) Units=km Length=0.0617763 bus1=p4udt784lv.1.2 bus2=p4udm2137.1.2 switch=n enabled=y phases=2 Linecode=1P_UG_AL_1/0_Brenau_0_416_0_2_2_2_2

New Line.l(r:p4udm2189-p4ulv818) Units=km Length=0.0141468 bus1=p4udm2189.1.2 bus2=p4ulv818.1.2 switch=n enabled=y phases=2 Linecode=1P_OH_AL_2/0_Rucina_0_416_0_2_2_2_2

New Line.l(r:p4udm2189-p4udt801lv) Units=km Length=0.0352511 bus1=p4udt801lv.1.2 bus2=p4udm2189.1.2 switch=n enabled=y phases=2 Linecode=1P_OH_AL_4/0_Zuzara_0_416_0_2_2_2_2

New Line.l(r:p4udm2190-p4ulv15697) Units=km Length=0.0212397 bus1=p4udm2190.1.2 bus2=p4ulv15697.1.2 switch=n enabled=y phases=2 Linecode=1P_UG_AL_1/0_Brenau_0_416_0_2_2_2_2

New Line.l(r:p4udm2190-p4ulv33078) Units=km Length=0.0151076 bus1=p4udm2190.1.2 bus2=p4ulv33078.1.2 switch=n enabled=y phases=2 Linecode=1P_UG_AL_1/0_Brenau_0_416_0_2_2_2_2

New Line.l(r:p4udm2190-p4udt801lv) Units=km Length=0.0488032 bus1=p4udt801lv.1.2 bus2=p4udm2190.1.2 switch=n enabled=y phases=2 Linecode=1P_UG_AL_4/0_Sweetbriar_0_416_0_2_2_2_2

New Line.l(r:p4udm2191-p4ulv22176) Units=km Length=0.0169503 bus1=p4udm2191.1.2 bus2=p4ulv22176.1.2 switch=n enabled=y phases=2 Linecode=1P_UG_AL_1/0_Brenau_0_416_0_2_2_2_2

New Line.l(r:p4udm2191-p4udt801lv) Units=km Length=0.0187602 bus1=p4udt801lv.1.2 bus2=p4udm2191.1.2 switch=n enabled=y phases=2 Linecode=1P_UG_AL_1/0_Brenau_0_416_0_2_2_2_2

New Line.l(r:p4udm2193-p4ulv819) Units=km Length=0.03334 bus1=p4udm2193.1.2 bus2=p4ulv819.1.2 switch=n enabled=y phases=2 Linecode=1P_OH_AL_4/0_Zuzara_0_416_0_2_2_2_2

New Line.l(r:p4udm2193-p4udt802lv) Units=km Length=0.0179625 bus1=p4udt802lv.1.2 bus2=p4udm2193.1.2 switch=n enabled=y phases=2 Linecode=1P_OH_AL_2/0_Rucina_0_416_0_2_2_2_2

New Line.l(r:p4udm2194-p4ulv13531) Units=km Length=0.0522783 bus1=p4udm2194.1.2 bus2=p4ulv13531.1.2 switch=n enabled=y phases=2 Linecode=1P_OH_AL_4/0_Zuzara_0_416_0_2_2_2_2

New Line.l(r:p4udm2194-p4udt802lv) Units=km Length=0.0179662 bus1=p4udt802lv.1.2 bus2=p4udm2194.1.2 switch=n enabled=y phases=2 Linecode=1P_OH_AL_2/0_Rucina_0_416_0_2_2_2_2

New Line.l(r:p4udm2195-p4ulv820) Units=km Length=0.0118084 bus1=p4udm2195.1.2 bus2=p4ulv820.1.2 switch=n enabled=y phases=2 Linecode=1P_OH_AL_2/0_Rucina_0_416_0_2_2_2_2

New Line.l(r:p4udm2195-p4udt803lv) Units=km Length=0.07039390000000001 bus1=p4udt803lv.1.2 bus2=p4udm2195.1.2 switch=n enabled=y phases=2 Linecode=1P_OH_AL_4/0_Zuzara_0_416_0_2_2_2_2

New Line.l(r:p4udm2196-p4ulv11353) Units=km Length=0.0308578 bus1=p4udm2196.1.2 bus2=p4ulv11353.1.2 switch=n enabled=y phases=2 Linecode=1P_UG_AL_4/0_Sweetbriar_0_416_0_2_2_2_2

New Line.l(r:p4udm2196-p4udt803lv) Units=km Length=0.0278394 bus1=p4udt803lv.1.2 bus2=p4udm2196.1.2 switch=n enabled=y phases=2 Linecode=1P_UG_AL_4/0_Sweetbriar_0_416_0_2_2_2_2

New Line.l(r:p4udt806lv-p4ulv823) Units=km Length=0.0177096 bus1=p4udt806lv.1.2 bus2=p4ulv823.1.2 switch=n enabled=y phases=2 Linecode=1P_OH_AL_2/0_Rucina_0_416_0_2_2_2_2

New Line.l(r:p4udt807lv-p4ulv824) Units=km Length=0.0553169 bus1=p4udt807lv.1.2 bus2=p4ulv824.1.2 switch=n enabled=y phases=2 Linecode=1P_OH_AL_4/0_Zuzara_0_416_0_2_2_2_2

New Line.l(r:p4udm2203-p4ulv36044) Units=km Length=0.0473184 bus1=p4udm2203.1.2 bus2=p4ulv36044.1.2 switch=n enabled=y phases=2 Linecode=1P_OH_AL_4/0_Zuzara_0_416_0_2_2_2_2

New Line.l(r:p4udm2203-p4udt807lv) Units=km Length=0.019161 bus1=p4udt807lv.1.2 bus2=p4udm2203.1.2 switch=n enabled=y phases=2 Linecode=1P_OH_AL_2/0_Rucina_0_416_0_2_2_2_2

New Line.l(r:p4udt808lv-p4ulv17905) Units=km Length=0.0267302 bus1=p4udt808lv.1.2 bus2=p4ulv17905.1.2 switch=n enabled=y phases=2 Linecode=1P_UG_AL_1/0_Brenau_0_416_0_2_2_2_2

New Line.l(r:p4udm2204-p4ulv825) Units=km Length=0.022034200000000004 bus1=p4udm2204.1.2 bus2=p4ulv825.1.2 switch=n enabled=y phases=2 Linecode=1P_UG_AL_1/0_Brenau_0_416_0_2_2_2_2

New Line.l(r:p4udm2204-p4udt808lv) Units=km Length=0.0282225 bus1=p4udt808lv.1.2 bus2=p4udm2204.1.2 switch=n enabled=y phases=2 Linecode=1P_UG_AL_1/0_Brenau_0_416_0_2_2_2_2

New Line.l(r:p4udm2205-p4ulv15705) Units=km Length=0.0185752 bus1=p4udm2205.1.2 bus2=p4ulv15705.1.2 switch=n enabled=y phases=2 Linecode=1P_UG_AL_1/0_Brenau_0_416_0_2_2_2_2

New Line.l(r:p4udm2205-p4udt808lv) Units=km Length=0.0133748 bus1=p4udt808lv.1.2 bus2=p4udm2205.1.2 switch=n enabled=y phases=2 Linecode=1P_UG_AL_1/0_Brenau_0_416_0_2_2_2_2

New Line.l(r:p4udt815lv-p4ulv13549) Units=km Length=0.0214256 bus1=p4udt815lv.1.2 bus2=p4ulv13549.1.2 switch=n enabled=y phases=2 Linecode=1P_OH_AL_2/0_Rucina_0_416_0_2_2_2_2

New Line.l(r:p4udm2229-p4ulv832) Units=km Length=0.0241295 bus1=p4udm2229.1.2 bus2=p4ulv832.1.2 switch=n enabled=y phases=2 Linecode=1P_OH_AL_2/0_Rucina_0_416_0_2_2_2_2

New Line.l(r:p4udm2229-p4udt815lv) Units=km Length=0.029113 bus1=p4udt815lv.1.2 bus2=p4udm2229.1.2 switch=n enabled=y phases=2 Linecode=1P_OH_AL_4/0_Zuzara_0_416_0_2_2_2_2

New Line.l(r:p4udt816lv-p4ulv833) Units=km Length=0.0803577 bus1=p4udt816lv.1.2 bus2=p4ulv833.1.2 switch=n enabled=y phases=2 Linecode=1P_OH_AL_4/0_Zuzara_0_416_0_2_2_2_2

New Line.l(r:p4udt818lv-p4ulv835) Units=km Length=0.0223803 bus1=p4udt818lv.1.2 bus2=p4ulv835.1.2 switch=n enabled=y phases=2 Linecode=1P_UG_AL_4/0_Sweetbriar_0_416_0_2_2_2_2

New Line.l(r:p4udm3242-p4ulv6252) Units=km Length=0.0208315 bus1=p4udm3242.1.2 bus2=p4ulv6252.1.2 switch=n enabled=y phases=2 Linecode=1P_OH_AL_2/0_Rucina_0_416_0_2_2_2_2

New Line.l(r:p4udm3241-p4ulv1239) Units=km Length=0.05165730000000001 bus1=p4udm3241.1.2 bus2=p4ulv1239.1.2 switch=n enabled=y phases=2 Linecode=1P_OH_AL_4/0_Zuzara_0_416_0_2_2_2_2

New Line.l(r:p4udm3241-p4udm3242) Units=km Length=0.0110708 bus1=p4udm3242.1.2 bus2=p4udm3241.1.2 switch=n enabled=y phases=2 Linecode=1P_OH_AL_2/0_Rucina_0_416_0_2_2_2_2

New Line.l(r:p4udm3242-p4udt1201lv) Units=km Length=0.0372822 bus1=p4udt1201lv.1.2 bus2=p4udm3242.1.2 switch=n enabled=y phases=2 Linecode=1P_OH_AL_4/0_Zuzara_0_416_0_2_2_2_2

New Line.l(r:p4udm3244-p4ulv15263) Units=km Length=0.028774 bus1=p4udm3244.1.2 bus2=p4ulv15263.1.2 switch=n enabled=y phases=2 Linecode=1P_OH_AL_4/0_Zuzara_0_416_0_2_2_2_2

New Line.l(r:p4udm3243-p4ulv9183) Units=km Length=0.021010200000000003 bus1=p4udm3243.1.2 bus2=p4ulv9183.1.2 switch=n enabled=y phases=2 Linecode=1P_OH_AL_2/0_Rucina_0_416_0_2_2_2_2

New Line.l(r:p4udm3243-p4udm3244) Units=km Length=0.0372822 bus1=p4udm3244.1.2 bus2=p4udm3243.1.2 switch=n enabled=y phases=2 Linecode=1P_OH_AL_4/0_Zuzara_0_416_0_2_2_2_2

New Line.l(r:p4udm3244-p4udt1201lv) Units=km Length=0.037292000000000006 bus1=p4udt1201lv.1.2 bus2=p4udm3244.1.2 switch=n enabled=y phases=2 Linecode=1P_OH_AL_4/0_Zuzara_0_416_0_2_2_2_2

New Line.l(r:p4udt1202lv-p4ulv42302) Units=km Length=0.0163588 bus1=p4udt1202lv.1.2 bus2=p4ulv42302.1.2 switch=n enabled=y phases=2 Linecode=1P_OH_AL_2/0_Rucina_0_416_0_2_2_2_2

New Line.l(r:p4udm3245-p4ulv1240) Units=km Length=0.023827 bus1=p4udm3245.1.2 bus2=p4ulv1240.1.2 switch=n enabled=y phases=2 Linecode=1P_OH_AL_2/0_Rucina_0_416_0_2_2_2_2

New Line.l(r:p4udm3245-p4udt1202lv) Units=km Length=0.023121600000000003 bus1=p4udt1202lv.1.2 bus2=p4udm3245.1.2 switch=n enabled=y phases=2 Linecode=1P_OH_AL_2/0_Rucina_0_416_0_2_2_2_2

New Line.l(r:p4udm3246-p4ulv27578) Units=km Length=0.021901600000000004 bus1=p4udm3246.1.2 bus2=p4ulv27578.1.2 switch=n enabled=y phases=2 Linecode=1P_OH_AL_2/0_Rucina_0_416_0_2_2_2_2

New Line.l(r:p4udm3246-p4ulv27579) Units=km Length=0.0188682 bus1=p4udm3246.1.2 bus2=p4ulv27579.1.2 switch=n enabled=y phases=2 Linecode=1P_OH_AL_2/0_Rucina_0_416_0_2_2_2_2

New Line.l(r:p4udm3246-p4udt1202lv) Units=km Length=0.0792947 bus1=p4udt1202lv.1.2 bus2=p4udm3246.1.2 switch=n enabled=y phases=2 Linecode=1P_OH_AL_4/0_Zuzara_0_416_0_2_2_2_2

New Line.l(r:p4udm3250-p4ulv5847) Units=km Length=0.018719000000000003 bus1=p4udm3250.1.2 bus2=p4ulv5847.1.2 switch=n enabled=y phases=2 Linecode=1P_UG_AL_1/0_Brenau_0_416_0_2_2_2_2

New Line.l(r:p4udm3251-p4ulv37283) Units=km Length=0.00831472 bus1=p4udm3251.1.2 bus2=p4ulv37283.1.2 switch=n enabled=y phases=2 Linecode=1P_UG_AL_1/0_Brenau_0_416_0_2_2_2_2

New Line.l(r:p4udm3250-p4udm3251) Units=km Length=0.00927177 bus1=p4udm3250.1.2 bus2=p4udm3251.1.2 switch=n enabled=y phases=2 Linecode=1P_UG_AL_1/0_Brenau_0_416_0_2_2_2_2

New Line.l(r:p4udm3250-p4udt1203lv) Units=km Length=0.0185301 bus1=p4udt1203lv.1.2 bus2=p4udm3250.1.2 switch=n enabled=y phases=2 Linecode=1P_UG_AL_4/0_Sweetbriar_0_416_0_2_2_2_2

New Line.l(r:p4udm3252-p4ulv38564) Units=km Length=0.0127063 bus1=p4udm3252.1.2 bus2=p4ulv38564.1.2 switch=n enabled=y phases=2 Linecode=1P_UG_AL_1/0_Brenau_0_416_0_2_2_2_2

New Line.l(r:p4udm3249-p4ulv1241) Units=km Length=0.0108166 bus1=p4udm3249.1.2 bus2=p4ulv1241.1.2 switch=n enabled=y phases=2 Linecode=1P_UG_AL_1/0_Brenau_0_416_0_2_2_2_2

New Line.l(r:p4udm3249-p4udm3252) Units=km Length=0.0313531 bus1=p4udm3252.1.2 bus2=p4udm3249.1.2 switch=n enabled=y phases=2 Linecode=1P_UG_AL_1/0_Brenau_0_416_0_2_2_2_2

New Line.l(r:p4udm3252-p4udt1203lv) Units=km Length=0.0269327 bus1=p4udt1203lv.1.2 bus2=p4udm3252.1.2 switch=n enabled=y phases=2 Linecode=1P_UG_AL_4/0_Sweetbriar_0_416_0_2_2_2_2

New Line.l(r:p4udt1210lv-p4ulv1249) Units=km Length=0.0556972 bus1=p4udt1210lv.1.2 bus2=p4ulv1249.1.2 switch=n enabled=y phases=2 Linecode=1P_OH_AL_4/0_Zuzara_0_416_0_2_2_2_2

New Line.l(r:p4udm3273-p4ulv7082) Units=km Length=0.0229123 bus1=p4udm3273.1.2 bus2=p4ulv7082.1.2 switch=n enabled=y phases=2 Linecode=1P_OH_AL_2/0_Rucina_0_416_0_2_2_2_2

New Line.l(r:p4udm3272-p4ulv1250) Units=km Length=0.025646800000000004 bus1=p4udm3272.1.2 bus2=p4ulv1250.1.2 switch=n enabled=y phases=2 Linecode=1P_OH_AL_2/0_Rucina_0_416_0_2_2_2_2

New Line.l(r:p4udm3272-p4udm3273) Units=km Length=0.0100714 bus1=p4udm3273.1.2 bus2=p4udm3272.1.2 switch=n enabled=y phases=2 Linecode=1P_OH_AL_2/0_Rucina_0_416_0_2_2_2_2

New Line.l(r:p4udm3273-p4udt1211lv) Units=km Length=0.0165384 bus1=p4udt1211lv.1.2 bus2=p4udm3273.1.2 switch=n enabled=y phases=2 Linecode=1P_OH_AL_2/0_Rucina_0_416_0_2_2_2_2

New Line.l(r:p4udm3274-p4ulv21302) Units=km Length=0.0125921 bus1=p4udm3274.1.2 bus2=p4ulv21302.1.2 switch=n enabled=y phases=2 Linecode=1P_UG_AL_1/0_Brenau_0_416_0_2_2_2_2

New Line.l(r:p4udm3275-p4ulv24166) Units=km Length=0.0189145 bus1=p4udm3275.1.2 bus2=p4ulv24166.1.2 switch=n enabled=y phases=2 Linecode=1P_UG_AL_1/0_Brenau_0_416_0_2_2_2_2

New Line.l(r:p4udm3274-p4udm3275) Units=km Length=0.0188714 bus1=p4udm3274.1.2 bus2=p4udm3275.1.2 switch=n enabled=y phases=2 Linecode=1P_UG_AL_1/0_Brenau_0_416_0_2_2_2_2

New Line.l(r:p4udm3274-p4udt1211lv) Units=km Length=0.0259879 bus1=p4udt1211lv.1.2 bus2=p4udm3274.1.2 switch=n enabled=y phases=2 Linecode=1P_OH_AL_2/0_Rucina_0_416_0_2_2_2_2

New Line.l(r:p4udt1215lv-p4ulv1254) Units=km Length=0.0149873 bus1=p4udt1215lv.1.2 bus2=p4ulv1254.1.2 switch=n enabled=y phases=2 Linecode=1P_UG_AL_1/0_Brenau_0_416_0_2_2_2_2

New Line.l(r:p4udm3286-p4ulv23760) Units=km Length=0.0142964 bus1=p4udm3286.1.2 bus2=p4ulv23760.1.2 switch=n enabled=y phases=2 Linecode=1P_UG_AL_1/0_Brenau_0_416_0_2_2_2_2

New Line.l(r:p4udm3286-p4udt1215lv) Units=km Length=0.00974542 bus1=p4udt1215lv.1.2 bus2=p4udm3286.1.2 switch=n enabled=y phases=2 Linecode=1P_UG_AL_1/0_Brenau_0_416_0_2_2_2_2

New Line.l(r:p4udm3287-p4ulv1255) Units=km Length=0.015073400000000002 bus1=p4udm3287.1.2 bus2=p4ulv1255.1.2 switch=n enabled=y phases=2 Linecode=1P_UG_AL_1/0_Brenau_0_416_0_2_2_2_2

New Line.l(r:p4udm3287-p4ulv11785) Units=km Length=0.0151057 bus1=p4udm3287.1.2 bus2=p4ulv11785.1.2 switch=n enabled=y phases=2 Linecode=1P_UG_AL_1/0_Brenau_0_416_0_2_2_2_2

New Line.l(r:p4udm3289-p4ulv23003) Units=km Length=0.0161232 bus1=p4udm3289.1.2 bus2=p4ulv23003.1.2 switch=n enabled=y phases=2 Linecode=1P_UG_AL_1/0_Brenau_0_416_0_2_2_2_2

New Line.l(r:p4udm3287-p4udm3289) Units=km Length=0.0097737 bus1=p4udm3287.1.2 bus2=p4udm3289.1.2 switch=n enabled=y phases=2 Linecode=1P_UG_AL_1/0_Brenau_0_416_0_2_2_2_2

New Line.l(r:p4udm3287-p4udt1216lv) Units=km Length=0.00976513 bus1=p4udt1216lv.1.2 bus2=p4udm3287.1.2 switch=n enabled=y phases=2 Linecode=1P_UG_AL_4/0_Sweetbriar_0_416_0_2_2_2_2

New Line.l(r:p4udm3290-p4ulv40223) Units=km Length=0.0275559 bus1=p4udm3290.1.2 bus2=p4ulv40223.1.2 switch=n enabled=y phases=2 Linecode=1P_UG_AL_1/0_Brenau_0_416_0_2_2_2_2

New Line.l(r:p4udm3290-p4udt1216lv) Units=km Length=0.019544000000000002 bus1=p4udt1216lv.1.2 bus2=p4udm3290.1.2 switch=n enabled=y phases=2 Linecode=1P_UG_AL_1/0_Brenau_0_416_0_2_2_2_2

New Line.l(r:p4udt1217lv-p4ulv1256) Units=km Length=0.112288 bus1=p4udt1217lv.1.2 bus2=p4ulv1256.1.2 switch=n enabled=y phases=2 Linecode=1P_OH_AL_4/0_Zuzara_0_416_0_2_2_2_2

New Line.l(r:p4udm3292-p4ulv23398) Units=km Length=0.0638965 bus1=p4udm3292.1.2 bus2=p4ulv23398.1.2 switch=n enabled=y phases=2 Linecode=1P_OH_AL_4/0_Zuzara_0_416_0_2_2_2_2

New Line.l(r:p4udm3292-p4udt1217lv) Units=km Length=0.0134791 bus1=p4udt1217lv.1.2 bus2=p4udm3292.1.2 switch=n enabled=y phases=2 Linecode=1P_OH_AL_2/0_Rucina_0_416_0_2_2_2_2

New Line.l(r:p4udt1221lv-p4ulv1260) Units=km Length=0.0218586 bus1=p4udt1221lv.1.2 bus2=p4ulv1260.1.2 switch=n enabled=y phases=2 Linecode=1P_OH_AL_2/0_Rucina_0_416_0_2_2_2_2

New Line.l(r:p4udt1221lv-p4ulv9229) Units=km Length=0.0371336 bus1=p4udt1221lv.1.2 bus2=p4ulv9229.1.2 switch=n enabled=y phases=2 Linecode=1P_OH_AL_4/0_Zuzara_0_416_0_2_2_2_2

New Line.l(r:p4udt1221lv-p4ulv44033) Units=km Length=0.0586422 bus1=p4udt1221lv.1.2 bus2=p4ulv44033.1.2 switch=n enabled=y phases=2 Linecode=1P_OH_AL_4/0_Zuzara_0_416_0_2_2_2_2

New Line.l(r:p4udm4360-p4ulv1673) Units=km Length=0.018396000000000003 bus1=p4udm4360.1.2 bus2=p4ulv1673.1.2 switch=n enabled=y phases=2 Linecode=1P_OH_AL_2/0_Rucina_0_416_0_2_2_2_2

New Line.l(r:p4udm4360-p4udt1607lv) Units=km Length=0.0436821 bus1=p4udt1607lv.1.2 bus2=p4udm4360.1.2 switch=n enabled=y phases=2 Linecode=1P_OH_AL_4/0_Zuzara_0_416_0_2_2_2_2

New Line.l(r:p4udm4361-p4ulv27134) Units=km Length=0.009860270000000003 bus1=p4udm4361.1.2 bus2=p4ulv27134.1.2 switch=n enabled=y phases=2 Linecode=1P_OH_AL_2/0_Rucina_0_416_0_2_2_2_2

New Line.l(r:p4udm4361-p4udt1607lv) Units=km Length=0.0377396 bus1=p4udt1607lv.1.2 bus2=p4udm4361.1.2 switch=n enabled=y phases=2 Linecode=1P_OH_AL_4/0_Zuzara_0_416_0_2_2_2_2

New Line.l(r:p4udt1608lv-p4ulv7935) Units=km Length=0.0306699 bus1=p4udt1608lv.1.2 bus2=p4ulv7935.1.2 switch=n enabled=y phases=2 Linecode=1P_UG_AL_1/0_Brenau_0_416_0_2_2_2_2

New Line.l(r:p4udt1608lv-p4ulv14810) Units=km Length=0.0204929 bus1=p4udt1608lv.1.2 bus2=p4ulv14810.1.2 switch=n enabled=y phases=2 Linecode=1P_UG_AL_1/0_Brenau_0_416_0_2_2_2_2

New Line.l(r:p4udm4362-p4ulv1674) Units=km Length=0.0227854 bus1=p4udm4362.1.2 bus2=p4ulv1674.1.2 switch=n enabled=y phases=2 Linecode=1P_UG_AL_1/0_Brenau_0_416_0_2_2_2_2

New Line.l(r:p4udm4362-p4udt1608lv) Units=km Length=0.0190753 bus1=p4udt1608lv.1.2 bus2=p4udm4362.1.2 switch=n enabled=y phases=2 Linecode=1P_UG_AL_1/0_Brenau_0_416_0_2_2_2_2

New Line.l(r:p4udm4364-p4ulv7936) Units=km Length=0.0172401 bus1=p4udm4364.1.2 bus2=p4ulv7936.1.2 switch=n enabled=y phases=2 Linecode=1P_UG_AL_1/0_Brenau_0_416_0_2_2_2_2

New Line.l(r:p4udm4364-p4udt1608lv) Units=km Length=0.00927177 bus1=p4udt1608lv.1.2 bus2=p4udm4364.1.2 switch=n enabled=y phases=2 Linecode=1P_UG_AL_1/0_Brenau_0_416_0_2_2_2_2

New Line.l(r:p4udt1611lv-p4ulv1677) Units=km Length=0.021701700000000004 bus1=p4udt1611lv.1.2 bus2=p4ulv1677.1.2 switch=n enabled=y phases=2 Linecode=1P_OH_AL_2/0_Rucina_0_416_0_2_2_2_2

New Line.l(r:p4udt1622lv-p4ulv1688) Units=km Length=0.0190351 bus1=p4udt1622lv.1.2 bus2=p4ulv1688.1.2 switch=n enabled=y phases=2 Linecode=1P_UG_AL_1/0_Brenau_0_416_0_2_2_2_2

New Line.l(r:p4udm4402-p4ulv14824) Units=km Length=0.0267537 bus1=p4udm4402.1.2 bus2=p4ulv14824.1.2 switch=n enabled=y phases=2 Linecode=1P_UG_AL_1/0_Brenau_0_416_0_2_2_2_2

New Line.l(r:p4udm4402-p4ulv33954) Units=km Length=0.0116822 bus1=p4udm4402.1.2 bus2=p4ulv33954.1.2 switch=n enabled=y phases=2 Linecode=1P_UG_AL_1/0_Brenau_0_416_0_2_2_2_2

New Line.l(r:p4udm4402-p4udt1622lv) Units=km Length=0.019279700000000004 bus1=p4udt1622lv.1.2 bus2=p4udm4402.1.2 switch=n enabled=y phases=2 Linecode=1P_UG_AL_4/0_Sweetbriar_0_416_0_2_2_2_2

New Line.l(r:p4udm4403-p4ulv25434) Units=km Length=0.0268647 bus1=p4udm4403.1.2 bus2=p4ulv25434.1.2 switch=n enabled=y phases=2 Linecode=1P_UG_AL_1/0_Brenau_0_416_0_2_2_2_2

New Line.l(r:p4udm4403-p4udt1622lv) Units=km Length=0.0196258 bus1=p4udt1622lv.1.2 bus2=p4udm4403.1.2 switch=n enabled=y phases=2 Linecode=1P_UG_AL_1/0_Brenau_0_416_0_2_2_2_2

New Line.l(r:p4udm4437-p4ulv1702) Units=km Length=0.0156694 bus1=p4udm4437.1.2 bus2=p4ulv1702.1.2 switch=n enabled=y phases=2 Linecode=1P_OH_AL_2/0_Rucina_0_416_0_2_2_2_2

New Line.l(r:p4udm4437-p4udt1636lv) Units=km Length=0.0186303 bus1=p4udt1636lv.1.2 bus2=p4udm4437.1.2 switch=n enabled=y phases=2 Linecode=1P_OH_AL_2/0_Rucina_0_416_0_2_2_2_2

New Line.l(r:p4udm4438-p4ulv24180) Units=km Length=0.024453300000000004 bus1=p4udm4438.1.2 bus2=p4ulv24180.1.2 switch=n enabled=y phases=2 Linecode=1P_OH_AL_2/0_Rucina_0_416_0_2_2_2_2

New Line.l(r:p4udm4438-p4udt1636lv) Units=km Length=0.018621 bus1=p4udt1636lv.1.2 bus2=p4udm4438.1.2 switch=n enabled=y phases=2 Linecode=1P_OH_AL_2/0_Rucina_0_416_0_2_2_2_2

New Line.l(r:p4udt1641lv-p4ulv3793) Units=km Length=0.0173649 bus1=p4udt1641lv.1.2 bus2=p4ulv3793.1.2 switch=n enabled=y phases=2 Linecode=1P_OH_AL_2/0_Rucina_0_416_0_2_2_2_2

New Line.l(r:p4udm4450-p4ulv1707) Units=km Length=0.022493600000000002 bus1=p4udm4450.1.2 bus2=p4ulv1707.1.2 switch=n enabled=y phases=2 Linecode=1P_OH_AL_2/0_Rucina_0_416_0_2_2_2_2

New Line.l(r:p4udm4450-p4ulv35630) Units=km Length=0.042996200000000005 bus1=p4udm4450.1.2 bus2=p4ulv35630.1.2 switch=n enabled=y phases=2 Linecode=1P_OH_AL_4/0_Zuzara_0_416_0_2_2_2_2

New Line.l(r:p4udm4450-p4udt1641lv) Units=km Length=0.0192954 bus1=p4udt1641lv.1.2 bus2=p4udm4450.1.2 switch=n enabled=y phases=2 Linecode=1P_OH_AL_2/0_Rucina_0_416_0_2_2_2_2

New Line.l(r:p4udm4452-p4ulv14835) Units=km Length=0.0240405 bus1=p4udm4452.1.2 bus2=p4ulv14835.1.2 switch=n enabled=y phases=2 Linecode=1P_OH_AL_2/0_Rucina_0_416_0_2_2_2_2

New Line.l(r:p4udm4452-p4ulv41909) Units=km Length=0.0152185 bus1=p4udm4452.1.2 bus2=p4ulv41909.1.2 switch=n enabled=y phases=2 Linecode=1P_OH_AL_2/0_Rucina_0_416_0_2_2_2_2

New Line.l(r:p4udm4452-p4udt1641lv) Units=km Length=0.019287 bus1=p4udt1641lv.1.2 bus2=p4udm4452.1.2 switch=n enabled=y phases=2 Linecode=1P_OH_AL_2/0_Rucina_0_416_0_2_2_2_2

New Line.l(r:p4udm4455-p4ulv1708) Units=km Length=0.0203619 bus1=p4udm4455.1.2 bus2=p4ulv1708.1.2 switch=n enabled=y phases=2 Linecode=1P_UG_AL_1/0_Brenau_0_416_0_2_2_2_2

New Line.l(r:p4udm4455-p4udt1642lv) Units=km Length=0.00971682 bus1=p4udt1642lv.1.2 bus2=p4udm4455.1.2 switch=n enabled=y phases=2 Linecode=1P_UG_AL_1/0_Brenau_0_416_0_2_2_2_2

New Line.l(r:p4udm4456-p4ulv5004) Units=km Length=0.011858200000000001 bus1=p4udm4456.1.2 bus2=p4ulv5004.1.2 switch=n enabled=y phases=2 Linecode=1P_UG_AL_1/0_Brenau_0_416_0_2_2_2_2

New Line.l(r:p4udm4456-p4ulv31853) Units=km Length=0.0202748 bus1=p4udm4456.1.2 bus2=p4ulv31853.1.2 switch=n enabled=y phases=2 Linecode=1P_UG_AL_1/0_Brenau_0_416_0_2_2_2_2

New Line.l(r:p4udm4456-p4udt1642lv) Units=km Length=0.00971682 bus1=p4udt1642lv.1.2 bus2=p4udm4456.1.2 switch=n enabled=y phases=2 Linecode=1P_UG_AL_4/0_Sweetbriar_0_416_0_2_2_2_2

New Line.l(r:p4udt1643lv-p4ulv1709) Units=km Length=0.0269072 bus1=p4udt1643lv.1.2 bus2=p4ulv1709.1.2 switch=n enabled=y phases=2 Linecode=1P_UG_AL_2/0_Converse_0_416_0_2_2_2_2

New Line.l(r:p4udt1965lv-p4ulv2057) Units=km Length=0.0280529 bus1=p4udt1965lv.1.2 bus2=p4ulv2057.1.2 switch=n enabled=y phases=2 Linecode=1P_UG_AL_1/0_Brenau_0_416_0_2_2_2_2

New Line.l(r:p4udt1965lv-p4ulv6669) Units=km Length=0.0339658 bus1=p4udt1965lv.1.2 bus2=p4ulv6669.1.2 switch=n enabled=y phases=2 Linecode=1P_UG_AL_1/0_Brenau_0_416_0_2_2_2_2

New Line.l(r:p4udt1965lv-p4ulv18295) Units=km Length=0.0219769 bus1=p4udt1965lv.1.2 bus2=p4ulv18295.1.2 switch=n enabled=y phases=2 Linecode=1P_UG_AL_1/0_Brenau_0_416_0_2_2_2_2

New Line.l(r:p4udm5309-p4ulv29264) Units=km Length=0.019934 bus1=p4udm5309.1.2 bus2=p4ulv29264.1.2 switch=n enabled=y phases=2 Linecode=1P_UG_AL_1/0_Brenau_0_416_0_2_2_2_2

New Line.l(r:p4udm5309-p4udt1965lv) Units=km Length=0.0690839 bus1=p4udt1965lv.1.2 bus2=p4udm5309.1.2 switch=n enabled=y phases=2 Linecode=1P_UG_AL_1/0_Brenau_0_416_0_2_2_2_2

New Line.l(r:p4udt1983lv-p4ulv2075) Units=km Length=0.0213744 bus1=p4udt1983lv.1.2 bus2=p4ulv2075.1.2 switch=n enabled=y phases=2 Linecode=1P_UG_AL_1/0_Brenau_0_416_0_2_2_2_2

New Line.l(r:p4udm5347-p4ulv20888) Units=km Length=0.0128301 bus1=p4udm5347.1.2 bus2=p4ulv20888.1.2 switch=n enabled=y phases=2 Linecode=1P_UG_AL_1/0_Brenau_0_416_0_2_2_2_2

New Line.l(r:p4udm5347-p4udt1983lv) Units=km Length=0.0083605 bus1=p4udt1983lv.1.2 bus2=p4udm5347.1.2 switch=n enabled=y phases=2 Linecode=1P_UG_AL_1/0_Brenau_0_416_0_2_2_2_2

New Line.l(r:p4udt1984lv-p4ulv41070) Units=km Length=0.0179518 bus1=p4udt1984lv.1.2 bus2=p4ulv41070.1.2 switch=n enabled=y phases=2 Linecode=1P_OH_AL_2/0_Rucina_0_416_0_2_2_2_2

New Line.l(r:p4udm5348-p4ulv2076) Units=km Length=0.0333399 bus1=p4udm5348.1.2 bus2=p4ulv2076.1.2 switch=n enabled=y phases=2 Linecode=1P_OH_AL_4/0_Zuzara_0_416_0_2_2_2_2

New Line.l(r:p4udm5348-p4udt1984lv) Units=km Length=0.0129904 bus1=p4udt1984lv.1.2 bus2=p4udm5348.1.2 switch=n enabled=y phases=2 Linecode=1P_OH_AL_2/0_Rucina_0_416_0_2_2_2_2

New Line.l(r:p4udm5349-p4ulv32654) Units=km Length=0.0192036 bus1=p4udm5349.1.2 bus2=p4ulv32654.1.2 switch=n enabled=y phases=2 Linecode=1P_OH_AL_2/0_Rucina_0_416_0_2_2_2_2

New Line.l(r:p4udm5349-p4udt1984lv) Units=km Length=0.027824300000000003 bus1=p4udt1984lv.1.2 bus2=p4udm5349.1.2 switch=n enabled=y phases=2 Linecode=1P_OH_AL_4/0_Zuzara_0_416_0_2_2_2_2

New Line.l(r:p4udt1985lv-p4ulv2077) Units=km Length=0.0262983 bus1=p4udt1985lv.1.2 bus2=p4ulv2077.1.2 switch=n enabled=y phases=2 Linecode=1P_OH_AL_2/0_Rucina_0_416_0_2_2_2_2

New Line.l(r:p4udt1986lv-p4ulv2078) Units=km Length=0.0273891 bus1=p4udt1986lv.1.2 bus2=p4ulv2078.1.2 switch=n enabled=y phases=2 Linecode=1P_UG_AL_1/0_Brenau_0_416_0_2_2_2_2

New Line.l(r:p4udt1986lv-p4ulv38579) Units=km Length=0.030542 bus1=p4udt1986lv.1.2 bus2=p4ulv38579.1.2 switch=n enabled=y phases=2 Linecode=1P_UG_AL_1/0_Brenau_0_416_0_2_2_2_2

New Line.l(r:p4udm5353-p4ulv5429) Units=km Length=0.0167157 bus1=p4udm5353.1.2 bus2=p4ulv5429.1.2 switch=n enabled=y phases=2 Linecode=1P_UG_AL_1/0_Brenau_0_416_0_2_2_2_2

New Line.l(r:p4udm5353-p4udt1986lv) Units=km Length=0.00981291 bus1=p4udt1986lv.1.2 bus2=p4udm5353.1.2 switch=n enabled=y phases=2 Linecode=1P_UG_AL_1/0_Brenau_0_416_0_2_2_2_2

New Line.l(r:p4udt1993lv-p4ulv2085) Units=km Length=0.0166628 bus1=p4udt1993lv.1.2 bus2=p4ulv2085.1.2 switch=n enabled=y phases=2 Linecode=1P_OH_AL_2/0_Rucina_0_416_0_2_2_2_2

New Line.l(r:p4udt1993lv-p4ulv26731) Units=km Length=0.0166628 bus1=p4udt1993lv.1.2 bus2=p4ulv26731.1.2 switch=n enabled=y phases=2 Linecode=1P_OH_AL_2/0_Rucina_0_416_0_2_2_2_2

New Line.l(r:p4udt1994lv-p4ulv14408) Units=km Length=0.0322986 bus1=p4udt1994lv.1.2 bus2=p4ulv14408.1.2 switch=n enabled=y phases=2 Linecode=1P_UG_AL_1/0_Brenau_0_416_0_2_2_2_2

New Line.l(r:p4udm5370-p4ulv2086) Units=km Length=0.043745 bus1=p4udm5370.1.2 bus2=p4ulv2086.1.2 switch=n enabled=y phases=2 Linecode=1P_UG_AL_1/0_Brenau_0_416_0_2_2_2_2

New Line.l(r:p4udm5370-p4udt1994lv) Units=km Length=0.00988911 bus1=p4udt1994lv.1.2 bus2=p4udm5370.1.2 switch=n enabled=y phases=2 Linecode=1P_UG_AL_1/0_Brenau_0_416_0_2_2_2_2

New Line.l(r:p4udt1995lv-p4ulv7087) Units=km Length=0.0135793 bus1=p4udt1995lv.1.2 bus2=p4ulv7087.1.2 switch=n enabled=y phases=2 Linecode=1P_UG_AL_1/0_Brenau_0_416_0_2_2_2_2

New Line.l(r:p4udm5372-p4ulv2087) Units=km Length=0.0223992 bus1=p4udm5372.1.2 bus2=p4ulv2087.1.2 switch=n enabled=y phases=2 Linecode=1P_UG_AL_1/0_Brenau_0_416_0_2_2_2_2

New Line.l(r:p4udm5372-p4ulv23000) Units=km Length=0.0170306 bus1=p4udm5372.1.2 bus2=p4ulv23000.1.2 switch=n enabled=y phases=2 Linecode=1P_UG_AL_1/0_Brenau_0_416_0_2_2_2_2

New Line.l(r:p4udm5372-p4udt1995lv) Units=km Length=0.019281 bus1=p4udt1995lv.1.2 bus2=p4udm5372.1.2 switch=n enabled=y phases=2 Linecode=1P_UG_AL_4/0_Sweetbriar_0_416_0_2_2_2_2

New Line.l(r:p4udm5374-p4ulv10076) Units=km Length=0.0162645 bus1=p4udm5374.1.2 bus2=p4ulv10076.1.2 switch=n enabled=y phases=2 Linecode=1P_UG_AL_1/0_Brenau_0_416_0_2_2_2_2

New Line.l(r:p4udm5376-p4ulv23761) Units=km Length=0.018788 bus1=p4udm5376.1.2 bus2=p4ulv23761.1.2 switch=n enabled=y phases=2 Linecode=1P_UG_AL_1/0_Brenau_0_416_0_2_2_2_2

New Line.l(r:p4udm5374-p4udm5376) Units=km Length=0.019281 bus1=p4udm5374.1.2 bus2=p4udm5376.1.2 switch=n enabled=y phases=2 Linecode=1P_UG_AL_1/0_Brenau_0_416_0_2_2_2_2
