New Line.l(r:p3uhs15_69-p3uts2_69)p3ud3 Units=km Length=0.383392 bus1=p3uhs15_69-p3uts2_69xx.1.2.3 bus2=p3uhs15_69-p3uts2_69x.1.2.3 switch=n enabled=y phases=3 Linecode=3P_OH_AL_ACSR_477kcmil_Hawk_69_0_3_3_3_3

New Line.l(r:p3uhs15_69-p3uts2_69)p3ud3p3ud3 Units=km Length=0.383392 bus1=p3uhs15_69-p3uts2_69x_px_p.1.2.3 bus2=p3uhs15_69-p3uts2_69x_p.1.2.3 switch=n enabled=y phases=3 Linecode=3P_OH_AL_ACSR_477kcmil_Hawk_69_0_3_3_3_3

New Line.l(r:p3uhs4_69-p3uts3_69)p3ud3 Units=km Length=3.1081100000000004 bus1=p3uhs4_69-p3uts3_69xx.1.2.3 bus2=p3uhs4_69-p3uts3_69x.1.2.3 switch=n enabled=y phases=3 Linecode=3P_OH_AL_ACSR_477kcmil_Hawk_69_0_3_3_3_3

New Line.l(r:p3uhs4_69-p3uts3_69)p3ud3p3ud3 Units=km Length=3.1081100000000004 bus1=p3uhs4_69-p3uts3_69x_px_p.1.2.3 bus2=p3uhs4_69-p3uts3_69x_p.1.2.3 switch=n enabled=y phases=3 Linecode=3P_OH_AL_ACSR_477kcmil_Hawk_69_0_3_3_3_3

New Line.l(r:p3uhs2_69-p3uts1_69)_s0p3ud4 Units=km Length=2.55619 bus1=p3uhs2_69-p3uts1_69x.1.2.3 bus2=p3uhs2_69-p3uts1_69xx.1.2.3 switch=n enabled=y phases=3 Linecode=3P_OH_AL_ACSR_477kcmil_Hawk_69_0_3_3_3_3

New Line.l(r:p3uhs2_69-p3uts1_69)_s1p3ud4 Units=km Length=4.40724 bus1=p3uhs2_69-p3uts1_69xx.1.2.3 bus2=p3uhs2_69-p3uts1_69xxx.1.2.3 switch=n enabled=y phases=3 Linecode=3P_OH_AL_ACSR_477kcmil_Hawk_69_0_3_3_3_3

New Line.l(r:p3uhs2_69-p3uts1_69)_s0p3ud4p3ud4 Units=km Length=2.55619 bus1=p3uhs2_69-p3uts1_69x_p.1.2.3 bus2=p3uhs2_69-p3uts1_69x_px_p.1.2.3 switch=n enabled=y phases=3 Linecode=3P_OH_AL_ACSR_477kcmil_Hawk_69_0_3_3_3_3

New Line.l(r:p3uhs2_69-p3uts1_69)_s1p3ud4p3ud4 Units=km Length=4.40724 bus1=p3uhs2_69-p3uts1_69x_px_p.1.2.3 bus2=p3uhs2_69-p3uts1_69x_px_px_p.1.2.3 switch=n enabled=y phases=3 Linecode=3P_OH_AL_ACSR_477kcmil_Hawk_69_0_3_3_3_3

New Line.l(r:p3uhs27_69-p3uts1_69)_s0 Units=km Length=2.21188 bus1=p3uhs27_69-p3uts1_69xxx.1.2.3 bus2=p3uhs27_69-p3uts1_69xx.1.2.3 switch=n enabled=y phases=3 Linecode=3P_OH_AL_ACSR_477kcmil_Hawk_69_0_3_3_3_3

New Line.l(r:p3uhs27_69-p3uts1_69)_s1 Units=km Length=7.78402 bus1=p3uhs27_69-p3uts1_69xx.1.2.3 bus2=p3uhs27_69-p3uts1_69x.1.2.3 switch=n enabled=y phases=3 Linecode=3P_OH_AL_ACSR_477kcmil_Hawk_69_0_3_3_3_3

New Line.l(r:p3uhs0_69-p3uhs16_69) Units=km Length=6.60318 bus1=p3uhs0_69-p3uhs16_69x.1.2.3 bus2=p3uhs0_69-p3uhs16_69xx.1.2.3 switch=n enabled=y phases=3 Linecode=3P_OH_AL_ACSR_477kcmil_Hawk_69_0_3_3_3_3

New Line.l(r:p3uhs21_69-p3uts3_69) Units=km Length=6.442970000000001 bus1=p3uhs21_69-p3uts3_69xx.1.2.3 bus2=p3uhs21_69-p3uts3_69x.1.2.3 switch=n enabled=y phases=3 Linecode=3P_OH_AL_ACSR_477kcmil_Hawk_69_0_3_3_3_3

New Line.l(r:p3uhs23_69-p3uts2_69) Units=km Length=6.13307 bus1=p3uhs23_69-p3uts2_69xx.1.2.3 bus2=p3uhs23_69-p3uts2_69x.1.2.3 switch=n enabled=y phases=3 Linecode=3P_OH_AL_ACSR_477kcmil_Hawk_69_0_3_3_3_3

New Line.l(r:p3uhs7_69-p3uts3_69) Units=km Length=5.83571 bus1=p3uhs7_69-p3uts3_69xx.1.2.3 bus2=p3uhs7_69-p3uts3_69x.1.2.3 switch=n enabled=y phases=3 Linecode=3P_OH_AL_ACSR_477kcmil_Hawk_69_0_3_3_3_3

New Line.l(r:p3uhs12_69-p3uhs25_69) Units=km Length=5.659 bus1=p3uhs12_69-p3uhs25_69x.1.2.3 bus2=p3uhs12_69-p3uhs25_69xx.1.2.3 switch=n enabled=y phases=3 Linecode=3P_OH_AL_ACSR_477kcmil_Hawk_69_0_3_3_3_3

New Line.l(r:p3uhs19_69-p3uhs20_69) Units=km Length=5.233390000000001 bus1=p3uhs19_69-p3uhs20_69x.1.2.3 bus2=p3uhs19_69-p3uhs20_69xx.1.2.3 switch=n enabled=y phases=3 Linecode=3P_UG_AL_1000mcm_69_69_0_3_3_3_3

New Line.l(r:p3uhs23_69-p3uhs25_69) Units=km Length=5.21812 bus1=p3uhs23_69-p3uhs25_69x.1.2.3 bus2=p3uhs23_69-p3uhs25_69xx.1.2.3 switch=n enabled=y phases=3 Linecode=3P_OH_AL_ACSR_477kcmil_Hawk_69_0_3_3_3_3

New Line.l(r:p3uhs17_69-p3uhs18_69) Units=km Length=5.20271 bus1=p3uhs17_69-p3uhs18_69x.1.2.3 bus2=p3uhs17_69-p3uhs18_69xx.1.2.3 switch=n enabled=y phases=3 Linecode=3P_OH_AL_ACSR_477kcmil_Hawk_69_0_3_3_3_3

New Line.l(r:p3uhs17_69-p3uts0_69) Units=km Length=4.61297 bus1=p3uhs17_69-p3uts0_69xx.1.2.3 bus2=p3uhs17_69-p3uts0_69x.1.2.3 switch=n enabled=y phases=3 Linecode=3P_OH_AL_ACSR_477kcmil_Hawk_69_0_3_3_3_3

New Line.l(r:p3uhs1_69-p3uhs24_69) Units=km Length=4.5618 bus1=p3uhs1_69-p3uhs24_69x.1.2.3 bus2=p3uhs1_69-p3uhs24_69xx.1.2.3 switch=n enabled=y phases=3 Linecode=3P_OH_AL_ACSR_477kcmil_Hawk_69_0_3_3_3_3

New Line.l(r:p3uhs24_69-p3uhs6_69) Units=km Length=4.51724 bus1=p3uhs24_69-p3uhs6_69xx.1.2.3 bus2=p3uhs24_69-p3uhs6_69x.1.2.3 switch=n enabled=y phases=3 Linecode=3P_OH_AL_ACSR_477kcmil_Hawk_69_0_3_3_3_3

New Line.l(r:p3uhs14_69-p3uhs15_69) Units=km Length=4.31596 bus1=p3uhs14_69-p3uhs15_69xx.1.2.3 bus2=p3uhs14_69-p3uhs15_69x.1.2.3 switch=n enabled=y phases=3 Linecode=3P_UG_AL_1000mcm_69_69_0_3_3_3_3

New Line.l(r:p3uhs1_69-p3uhs9_69)_s0 Units=km Length=1.37392 bus1=p3uhs1_69-p3uhs9_69xxx.1.2.3 bus2=p3uhs1_69-p3uhs9_69xx.1.2.3 switch=n enabled=y phases=3 Linecode=3P_OH_AL_ACSR_477kcmil_Hawk_69_0_3_3_3_3

New Line.l(r:p3uhs1_69-p3uhs9_69)_s1 Units=km Length=2.83532 bus1=p3uhs1_69-p3uhs9_69xx.1.2.3 bus2=p3uhs1_69-p3uhs9_69x.1.2.3 switch=n enabled=y phases=3 Linecode=3P_OH_AL_ACSR_477kcmil_Hawk_69_0_3_3_3_3

New Line.l(r:p3uhs14_69-p3uhs3_69) Units=km Length=4.05765 bus1=p3uhs14_69-p3uhs3_69xx.1.2.3 bus2=p3uhs14_69-p3uhs3_69x.1.2.3 switch=n enabled=y phases=3 Linecode=3P_OH_AL_ACSR_477kcmil_Hawk_69_0_3_3_3_3

New Line.l(r:p3uhs27_69-p3uhs28_69) Units=km Length=3.9 bus1=p3uhs27_69-p3uhs28_69x.1.2.3 bus2=p3uhs27_69-p3uhs28_69xx.1.2.3 switch=n enabled=y phases=3 Linecode=3P_OH_AL_ACSR_477kcmil_Hawk_69_0_3_3_3_3

New Line.l(r:p3uhs4_69-p3uhs8_69) Units=km Length=3.8636 bus1=p3uhs4_69-p3uhs8_69x.1.2.3 bus2=p3uhs4_69-p3uhs8_69xx.1.2.3 switch=n enabled=y phases=3 Linecode=3P_OH_AL_ACSR_477kcmil_Hawk_69_0_3_3_3_3

New Line.l(r:p3uhs10_69-p3uts2_69) Units=km Length=3.84055 bus1=p3uhs10_69-p3uts2_69xx.1.2.3 bus2=p3uhs10_69-p3uts2_69x.1.2.3 switch=n enabled=y phases=3 Linecode=3P_OH_AL_ACSR_477kcmil_Hawk_69_0_3_3_3_3

New Line.l(r:p3uhs12_69-p3uts4_69) Units=km Length=3.7852600000000005 bus1=p3uhs12_69-p3uts4_69xx.1.2.3 bus2=p3uhs12_69-p3uts4_69x.1.2.3 switch=n enabled=y phases=3 Linecode=3P_OH_AL_ACSR_477kcmil_Hawk_69_0_3_3_3_3

New Line.l(r:p3uhs19_69-p3uts0_69) Units=km Length=3.36855 bus1=p3uhs19_69-p3uts0_69xx.1.2.3 bus2=p3uhs19_69-p3uts0_69x.1.2.3 switch=n enabled=y phases=3 Linecode=3P_OH_AL_ACSR_477kcmil_Hawk_69_0_3_3_3_3

New Line.l(r:p3uhs9_69-p3uts1_69) Units=km Length=3.26292 bus1=p3uhs9_69-p3uts1_69xx.1.2.3 bus2=p3uhs9_69-p3uts1_69x.1.2.3 switch=n enabled=y phases=3 Linecode=3P_OH_AL_ACSR_477kcmil_Hawk_69_0_3_3_3_3

New Line.l(r:p3uhs4_69-p3uhs6_69) Units=km Length=3.20217 bus1=p3uhs4_69-p3uhs6_69x.1.2.3 bus2=p3uhs4_69-p3uhs6_69xx.1.2.3 switch=n enabled=y phases=3 Linecode=3P_OH_AL_ACSR_477kcmil_Hawk_69_0_3_3_3_3

New Line.l(r:p3uhs22_69-p3uts0_69) Units=km Length=2.7295600000000007 bus1=p3uhs22_69-p3uts0_69xx.1.2.3 bus2=p3uhs22_69-p3uts0_69x.1.2.3 switch=n enabled=y phases=3 Linecode=3P_OH_AL_ACSR_477kcmil_Hawk_69_0_3_3_3_3

New Line.l(r:p3uhs13_69-p3uts4_69) Units=km Length=2.54855 bus1=p3uhs13_69-p3uts4_69xx.1.2.3 bus2=p3uhs13_69-p3uts4_69x.1.2.3 switch=n enabled=y phases=3 Linecode=3P_OH_AL_ACSR_477kcmil_Hawk_69_0_3_3_3_3

New Line.l(r:p3uhs11_69-p3uts3_69) Units=km Length=2.49375 bus1=p3uhs11_69-p3uts3_69xx.1.2.3 bus2=p3uhs11_69-p3uts3_69x.1.2.3 switch=n enabled=y phases=3 Linecode=3P_OH_AL_ACSR_477kcmil_Hawk_69_0_3_3_3_3

New Line.l(r:p3uhs0_69-p3uts0_69) Units=km Length=2.38096 bus1=p3uhs0_69-p3uts0_69xx.1.2.3 bus2=p3uhs0_69-p3uts0_69x.1.2.3 switch=n enabled=y phases=3 Linecode=3P_OH_AL_ACSR_477kcmil_Hawk_69_0_3_3_3_3

New Line.l(r:p3uhs22_69-p3uhs3_69) Units=km Length=2.27437 bus1=p3uhs22_69-p3uhs3_69x.1.2.3 bus2=p3uhs22_69-p3uhs3_69xx.1.2.3 switch=n enabled=y phases=3 Linecode=3P_OH_AL_ACSR_477kcmil_Hawk_69_0_3_3_3_3

New Line.l(r:p3uhs26_69-p3uts1_69)_s0 Units=km Length=0.697794 bus1=p3uhs26_69-p3uts1_69xxx.1.2.3 bus2=p3uhs26_69-p3uts1_69xx.1.2.3 switch=n enabled=y phases=3 Linecode=3P_UG_AL_1000mcm_69_69_0_3_3_3_3

New Line.l(r:p3uhs26_69-p3uts1_69)_s1 Units=km Length=1.50559 bus1=p3uhs26_69-p3uts1_69xx.1.2.3 bus2=p3uhs26_69-p3uts1_69x.1.2.3 switch=n enabled=y phases=3 Linecode=3P_OH_AL_ACSR_477kcmil_Hawk_69_0_3_3_3_3

New Line.l(r:p3uhs5_69-p3uts3_69) Units=km Length=1.9585600000000003 bus1=p3uhs5_69-p3uts3_69xx.1.2.3 bus2=p3uhs5_69-p3uts3_69x.1.2.3 switch=n enabled=y phases=3 Linecode=3P_OH_AL_ACSR_477kcmil_Hawk_69_0_3_3_3_3

New Line.l(r:p3uhs1_69-p3uhs2_69) Units=km Length=1.89659 bus1=p3uhs1_69-p3uhs2_69x.1.2.3 bus2=p3uhs1_69-p3uhs2_69xx.1.2.3 switch=n enabled=y phases=3 Linecode=3P_OH_AL_ACSR_477kcmil_Hawk_69_0_3_3_3_3

New Line.breaker(r:p3uts0_69-st_mat)p3u_206446 Units=km Length=0.001 bus1=st_mat.1.2.3 bus2=p3uts0_69-st_matxx.1.2.3 switch=y enabled=y phases=3 Linecode=breaker_3_3_3_3

New Line.breaker(r:p3uts0_69-st_mat)p3u_206447 Units=km Length=0.001 bus1=p3uts0_69-st_matx.1.2.3 bus2=p3uts0_69.1.2.3 switch=y enabled=y phases=3 Linecode=breaker_3_3_3_3

New Line.breaker(r:p3uts1_69-st_mat)p3u_206448 Units=km Length=0.001 bus1=st_mat.1.2.3 bus2=p3uts1_69-st_matxx.1.2.3 switch=y enabled=y phases=3 Linecode=breaker_3_3_3_3

New Line.breaker(r:p3uts1_69-st_mat)p3u_206449 Units=km Length=0.001 bus1=p3uts1_69-st_matx.1.2.3 bus2=p3uts1_69.1.2.3 switch=y enabled=y phases=3 Linecode=breaker_3_3_3_3

New Line.breaker(r:p3uts2_69-st_mat)p3u_206450 Units=km Length=0.001 bus1=st_mat.1.2.3 bus2=p3uts2_69-st_matxx.1.2.3 switch=y enabled=y phases=3 Linecode=breaker_3_3_3_3

New Line.breaker(r:p3uts2_69-st_mat)p3u_206451 Units=km Length=0.001 bus1=p3uts2_69-st_matx.1.2.3 bus2=p3uts2_69.1.2.3 switch=y enabled=y phases=3 Linecode=breaker_3_3_3_3

New Line.breaker(r:p3uts3_69-st_mat)p3u_206452 Units=km Length=0.001 bus1=st_mat.1.2.3 bus2=p3uts3_69-st_matxx.1.2.3 switch=y enabled=y phases=3 Linecode=breaker_3_3_3_3

New Line.breaker(r:p3uts3_69-st_mat)p3u_206453 Units=km Length=0.001 bus1=p3uts3_69-st_matx.1.2.3 bus2=p3uts3_69.1.2.3 switch=y enabled=y phases=3 Linecode=breaker_3_3_3_3

New Line.breaker(r:p3uts4_69-st_mat)p3u_206454 Units=km Length=0.001 bus1=st_mat.1.2.3 bus2=p3uts4_69-st_matxx.1.2.3 switch=y enabled=y phases=3 Linecode=breaker_3_5_3_3_3

New Line.breaker(r:p3uts4_69-st_mat)p3u_206455 Units=km Length=0.001 bus1=p3uts4_69-st_matx.1.2.3 bus2=p3uts4_69.1.2.3 switch=y enabled=y phases=3 Linecode=breaker_3_3_3_3

New Line.breaker(r:p3uhs15_69-p3uts2_69)p3u_206502p3ud3 Units=km Length=0.001 bus1=p3uts2_69.1.2.3 bus2=p3uhs15_69-p3uts2_69xx.1.2.3 switch=y enabled=y phases=3 Linecode=breaker_3_3_3_3

New Line.breaker(r:p3uhs15_69-p3uts2_69)p3u_206503p3ud3 Units=km Length=0.001 bus1=p3uhs15_69-p3uts2_69x.1.2.3 bus2=p3uhs15_69.1.2.3 switch=y enabled=y phases=3 Linecode=breaker_3_3_3_3

New Line.breaker(r:p3uhs15_69-p3uts2_69)p3u_206502p3ud3p3ud3 Units=km Length=0.001 bus1=p3uts2_69.1.2.3 bus2=p3uhs15_69-p3uts2_69x_px_p.1.2.3 switch=y enabled=y phases=3 Linecode=breaker_3_3_3_3

New Line.breaker(r:p3uhs15_69-p3uts2_69)p3u_206503p3ud3p3ud3 Units=km Length=0.001 bus1=p3uhs15_69-p3uts2_69x_p.1.2.3 bus2=p3uhs15_69.1.2.3 switch=y enabled=y phases=3 Linecode=breaker_3_5_3_2_3_3

New Line.breaker(r:p3uhs4_69-p3uts3_69)p3u_206492p3ud3 Units=km Length=0.001 bus1=p3uts3_69.1.2.3 bus2=p3uhs4_69-p3uts3_69xx.1.2.3 switch=y enabled=y phases=3 Linecode=breaker_3_3_3_3

New Line.breaker(r:p3uhs4_69-p3uts3_69)p3u_206493p3ud3 Units=km Length=0.001 bus1=p3uhs4_69-p3uts3_69x.1.2.3 bus2=p3uhs4_69.1.2.3 switch=y enabled=y phases=3 Linecode=breaker_3_3_3_3

New Line.breaker(r:p3uhs4_69-p3uts3_69)p3u_206492p3ud3p3ud3 Units=km Length=0.001 bus1=p3uts3_69.1.2.3 bus2=p3uhs4_69-p3uts3_69x_px_p.1.2.3 switch=y enabled=y phases=3 Linecode=breaker_3_3_3_3

New Line.breaker(r:p3uhs4_69-p3uts3_69)p3u_206493p3ud3p3ud3 Units=km Length=0.001 bus1=p3uhs4_69-p3uts3_69x_p.1.2.3 bus2=p3uhs4_69.1.2.3 switch=y enabled=y phases=3 Linecode=breaker_3_3_3_3

New Line.breaker(r:p3uhs2_69-p3uts1_69)p3u_206532p3ud4 Units=km Length=0.001 bus1=p3uhs2_69.1.2.3 bus2=p3uhs2_69-p3uts1_69x.1.2.3 switch=y enabled=y phases=3 Linecode=breaker_3_3_3_3

New Line.breaker(r:p3uhs2_69-p3uts1_69)p3u_206533p3ud4 Units=km Length=0.001 bus1=p3uhs2_69-p3uts1_69xxx.1.2.3 bus2=p3uts1_69.1.2.3 switch=y enabled=y phases=3 Linecode=breaker_3_3_3_3

New Line.breaker(r:p3uhs2_69-p3uts1_69)p3u_206532p3ud4p3ud4 Units=km Length=0.001 bus1=p3uhs2_69.1.2.3 bus2=p3uhs2_69-p3uts1_69x_p.1.2.3 switch=y enabled=y phases=3 Linecode=breaker_3_3_3_3

New Line.breaker(r:p3uhs2_69-p3uts1_69)p3u_206533p3ud4p3ud4 Units=km Length=0.001 bus1=p3uhs2_69-p3uts1_69x_px_px_p.1.2.3 bus2=p3uts1_69.1.2.3 switch=y enabled=y phases=3 Linecode=breaker_3_3_3_3

New Line.breaker(r:p3uhs27_69-p3uts1_69)p3u_206534 Units=km Length=0.001 bus1=p3uts1_69.1.2.3 bus2=p3uhs27_69-p3uts1_69xxx.1.2.3 switch=y enabled=y phases=3 Linecode=breaker_3_3_3_3

New Line.breaker(r:p3uhs27_69-p3uts1_69)p3u_206535 Units=km Length=0.001 bus1=p3uhs27_69-p3uts1_69x.1.2.3 bus2=p3uhs27_69.1.2.3 switch=y enabled=y phases=3 Linecode=breaker_3_3_3_3

New Line.breaker(r:p3uhs0_69-p3uhs16_69)p3u_206536 Units=km Length=0.001 bus1=p3uhs0_69.1.2.3 bus2=p3uhs0_69-p3uhs16_69x.1.2.3 switch=y enabled=y phases=3 Linecode=breaker_3_5_3_2_3_3

New Line.breaker(r:p3uhs0_69-p3uhs16_69)p3u_206537 Units=km Length=0.001 bus1=p3uhs0_69-p3uhs16_69xx.1.2.3 bus2=p3uhs16_69.1.2.3 switch=y enabled=y phases=3 Linecode=breaker_3_5_3_2_3_2_3

New Line.breaker(r:p3uhs21_69-p3uts3_69)p3u_206538 Units=km Length=0.001 bus1=p3uts3_69.1.2.3 bus2=p3uhs21_69-p3uts3_69xx.1.2.3 switch=y enabled=y phases=3 Linecode=breaker_3_3_3_3

New Line.breaker(r:p3uhs21_69-p3uts3_69)p3u_206539 Units=km Length=0.001 bus1=p3uhs21_69-p3uts3_69x.1.2.3 bus2=p3uhs21_69.1.2.3 switch=y enabled=y phases=3 Linecode=breaker_3_5_3_2_3_2_3_2

New Line.breaker(r:p3uhs23_69-p3uts2_69)p3u_206540 Units=km Length=0.001 bus1=p3uts2_69.1.2.3 bus2=p3uhs23_69-p3uts2_69xx.1.2.3 switch=y enabled=y phases=3 Linecode=breaker_3_3_3_3

New Line.breaker(r:p3uhs23_69-p3uts2_69)p3u_206541 Units=km Length=0.001 bus1=p3uhs23_69-p3uts2_69x.1.2.3 bus2=p3uhs23_69.1.2.3 switch=y enabled=y phases=3 Linecode=breaker_3_5_3_2_3_2_3_2

New Line.breaker(r:p3uhs7_69-p3uts3_69)p3u_206542 Units=km Length=0.001 bus1=p3uts3_69.1.2.3 bus2=p3uhs7_69-p3uts3_69xx.1.2.3 switch=y enabled=y phases=3 Linecode=breaker_3_3_3_3

New Line.breaker(r:p3uhs7_69-p3uts3_69)p3u_206543 Units=km Length=0.001 bus1=p3uhs7_69-p3uts3_69x.1.2.3 bus2=p3uhs7_69.1.2.3 switch=y enabled=y phases=3 Linecode=breaker_3_3_3_3

New Line.breaker(r:p3uhs12_69-p3uhs25_69)p3u_206544 Units=km Length=0.001 bus1=p3uhs12_69.1.2.3 bus2=p3uhs12_69-p3uhs25_69x.1.2.3 switch=y enabled=y phases=3 Linecode=breaker_3_3_3_3

New Line.breaker(r:p3uhs12_69-p3uhs25_69)p3u_206545 Units=km Length=0.001 bus1=p3uhs12_69-p3uhs25_69xx.1.2.3 bus2=p3uhs25_69.1.2.3 switch=y enabled=y phases=3 Linecode=breaker_3_3_3_3

New Line.breaker(r:p3uhs19_69-p3uhs20_69)p3u_206546 Units=km Length=0.001 bus1=p3uhs19_69.1.2.3 bus2=p3uhs19_69-p3uhs20_69x.1.2.3 switch=y enabled=y phases=3 Linecode=breaker_3_5_3_2_3_2_3_2

New Line.breaker(r:p3uhs19_69-p3uhs20_69)p3u_206547 Units=km Length=0.001 bus1=p3uhs19_69-p3uhs20_69xx.1.2.3 bus2=p3uhs20_69.1.2.3 switch=y enabled=y phases=3 Linecode=breaker_3_5_3_2_3_3

New Line.breaker(r:p3uhs23_69-p3uhs25_69)p3u_206548 Units=km Length=0.001 bus1=p3uhs23_69.1.2.3 bus2=p3uhs23_69-p3uhs25_69x.1.2.3 switch=y enabled=y phases=3 Linecode=breaker_3_5_3_2_3_2_3_2

New Line.breaker(r:p3uhs23_69-p3uhs25_69)p3u_206549 Units=km Length=0.001 bus1=p3uhs23_69-p3uhs25_69xx.1.2.3 bus2=p3uhs25_69.1.2.3 switch=y enabled=y phases=3 Linecode=breaker_3_5_3_3_3

New Line.breaker(r:p3uhs17_69-p3uhs18_69)p3u_206550 Units=km Length=0.001 bus1=p3uhs17_69.1.2.3 bus2=p3uhs17_69-p3uhs18_69x.1.2.3 switch=y enabled=y phases=3 Linecode=breaker_3_3_3_3

New Line.breaker(r:p3uhs17_69-p3uhs18_69)p3u_206551 Units=km Length=0.001 bus1=p3uhs17_69-p3uhs18_69xx.1.2.3 bus2=p3uhs18_69.1.2.3 switch=y enabled=y phases=3 Linecode=breaker_3_5_3_2_3_2_3_2

New Line.breaker(r:p3uhs17_69-p3uts0_69)p3u_206552 Units=km Length=0.001 bus1=p3uts0_69.1.2.3 bus2=p3uhs17_69-p3uts0_69xx.1.2.3 switch=y enabled=y phases=3 Linecode=breaker_3_3_3_3

New Line.breaker(r:p3uhs17_69-p3uts0_69)p3u_206553 Units=km Length=0.001 bus1=p3uhs17_69-p3uts0_69x.1.2.3 bus2=p3uhs17_69.1.2.3 switch=y enabled=y phases=3 Linecode=breaker_3_3_3_3

New Line.breaker(r:p3uhs1_69-p3uhs24_69)p3u_206554 Units=km Length=0.001 bus1=p3uhs1_69.1.2.3 bus2=p3uhs1_69-p3uhs24_69x.1.2.3 switch=y enabled=y phases=3 Linecode=breaker_3_3_3_3

New Line.breaker(r:p3uhs1_69-p3uhs24_69)p3u_206555 Units=km Length=0.001 bus1=p3uhs1_69-p3uhs24_69xx.1.2.3 bus2=p3uhs24_69.1.2.3 switch=y enabled=y phases=3 Linecode=breaker_3_3_3_3

New Line.breaker(r:p3uhs24_69-p3uhs6_69)p3u_206556 Units=km Length=0.001 bus1=p3uhs6_69.1.2.3 bus2=p3uhs24_69-p3uhs6_69xx.1.2.3 switch=y enabled=y phases=3 Linecode=breaker_3_3_3_3

New Line.breaker(r:p3uhs24_69-p3uhs6_69)p3u_206557 Units=km Length=0.001 bus1=p3uhs24_69-p3uhs6_69x.1.2.3 bus2=p3uhs24_69.1.2.3 switch=y enabled=y phases=3 Linecode=breaker_3_3_3_3

New Line.breaker(r:p3uhs14_69-p3uhs15_69)p3u_206558 Units=km Length=0.001 bus1=p3uhs15_69.1.2.3 bus2=p3uhs14_69-p3uhs15_69xx.1.2.3 switch=y enabled=y phases=3 Linecode=breaker_3_3_3_3

New Line.breaker(r:p3uhs14_69-p3uhs15_69)p3u_206559 Units=km Length=0.001 bus1=p3uhs14_69-p3uhs15_69x.1.2.3 bus2=p3uhs14_69.1.2.3 switch=y enabled=y phases=3 Linecode=breaker_3_5_3_2_3_2_3_2

New Line.breaker(r:p3uhs1_69-p3uhs9_69)p3u_206560 Units=km Length=0.001 bus1=p3uhs9_69.1.2.3 bus2=p3uhs1_69-p3uhs9_69xxx.1.2.3 switch=y enabled=y phases=3 Linecode=breaker_3_3_3_3

New Line.breaker(r:p3uhs1_69-p3uhs9_69)p3u_206561 Units=km Length=0.001 bus1=p3uhs1_69-p3uhs9_69x.1.2.3 bus2=p3uhs1_69.1.2.3 switch=y enabled=y phases=3 Linecode=breaker_3_3_3_3

New Line.breaker(r:p3uhs14_69-p3uhs3_69)p3u_206562 Units=km Length=0.001 bus1=p3uhs3_69.1.2.3 bus2=p3uhs14_69-p3uhs3_69xx.1.2.3 switch=y enabled=y phases=3 Linecode=breaker_3_5_3_3_3

New Line.breaker(r:p3uhs14_69-p3uhs3_69)p3u_206563 Units=km Length=0.001 bus1=p3uhs14_69-p3uhs3_69x.1.2.3 bus2=p3uhs14_69.1.2.3 switch=y enabled=y phases=3 Linecode=breaker_3_5_3_2_3_2_3_2

New Line.breaker(r:p3uhs27_69-p3uhs28_69)p3u_206564 Units=km Length=0.001 bus1=p3uhs27_69.1.2.3 bus2=p3uhs27_69-p3uhs28_69x.1.2.3 switch=y enabled=y phases=3 Linecode=breaker_3_5_3_2_3_2_3_2

New Line.breaker(r:p3uhs27_69-p3uhs28_69)p3u_206565 Units=km Length=0.001 bus1=p3uhs27_69-p3uhs28_69xx.1.2.3 bus2=p3uhs28_69.1.2.3 switch=y enabled=y phases=3 Linecode=breaker_3_5_3_2_3_2_3_2

New Line.breaker(r:p3uhs4_69-p3uhs8_69)p3u_206566 Units=km Length=0.001 bus1=p3uhs4_69.1.2.3 bus2=p3uhs4_69-p3uhs8_69x.1.2.3 switch=y enabled=y phases=3 Linecode=breaker_3_3_3_3

New Line.breaker(r:p3uhs4_69-p3uhs8_69)p3u_206567 Units=km Length=0.001 bus1=p3uhs4_69-p3uhs8_69xx.1.2.3 bus2=p3uhs8_69.1.2.3 switch=y enabled=y phases=3 Linecode=breaker_3_5_3_2_3_2_3_2

New Line.breaker(r:p3uhs10_69-p3uts2_69)p3u_206568 Units=km Length=0.001 bus1=p3uts2_69.1.2.3 bus2=p3uhs10_69-p3uts2_69xx.1.2.3 switch=y enabled=y phases=3 Linecode=breaker_3_3_3_3

New Line.breaker(r:p3uhs10_69-p3uts2_69)p3u_206569 Units=km Length=0.001 bus1=p3uhs10_69-p3uts2_69x.1.2.3 bus2=p3uhs10_69.1.2.3 switch=y enabled=y phases=3 Linecode=breaker_3_5_3_2_3_2_3_2

New Line.breaker(r:p3uhs12_69-p3uts4_69)p3u_206570 Units=km Length=0.001 bus1=p3uts4_69.1.2.3 bus2=p3uhs12_69-p3uts4_69xx.1.2.3 switch=y enabled=y phases=3 Linecode=breaker_3_3_3_3

New Line.breaker(r:p3uhs12_69-p3uts4_69)p3u_206571 Units=km Length=0.001 bus1=p3uhs12_69-p3uts4_69x.1.2.3 bus2=p3uhs12_69.1.2.3 switch=y enabled=y phases=3 Linecode=breaker_3_5_3_2_3_2_3_2

New Line.breaker(r:p3uhs19_69-p3uts0_69)p3u_206572 Units=km Length=0.001 bus1=p3uts0_69.1.2.3 bus2=p3uhs19_69-p3uts0_69xx.1.2.3 switch=y enabled=y phases=3 Linecode=breaker_3_5_3_2_3_2_3_2

New Line.breaker(r:p3uhs19_69-p3uts0_69)p3u_206573 Units=km Length=0.001 bus1=p3uhs19_69-p3uts0_69x.1.2.3 bus2=p3uhs19_69.1.2.3 switch=y enabled=y phases=3 Linecode=breaker_3_5_3_2_3_2_3_2

New Line.breaker(r:p3uhs9_69-p3uts1_69)p3u_206574 Units=km Length=0.001 bus1=p3uts1_69.1.2.3 bus2=p3uhs9_69-p3uts1_69xx.1.2.3 switch=y enabled=y phases=3 Linecode=breaker_3_3_3_3

New Line.breaker(r:p3uhs9_69-p3uts1_69)p3u_206575 Units=km Length=0.001 bus1=p3uhs9_69-p3uts1_69x.1.2.3 bus2=p3uhs9_69.1.2.3 switch=y enabled=y phases=3 Linecode=breaker_3_5_3_2_3_2_3_2

New Line.breaker(r:p3uhs4_69-p3uhs6_69)p3u_206576 Units=km Length=0.001 bus1=p3uhs4_69.1.2.3 bus2=p3uhs4_69-p3uhs6_69x.1.2.3 switch=y enabled=y phases=3 Linecode=breaker_3_3_3_3

New Line.breaker(r:p3uhs4_69-p3uhs6_69)p3u_206577 Units=km Length=0.001 bus1=p3uhs4_69-p3uhs6_69xx.1.2.3 bus2=p3uhs6_69.1.2.3 switch=y enabled=y phases=3 Linecode=breaker_3_3_3_3

New Line.breaker(r:p3uhs22_69-p3uts0_69)p3u_206578 Units=km Length=0.001 bus1=p3uts0_69.1.2.3 bus2=p3uhs22_69-p3uts0_69xx.1.2.3 switch=y enabled=y phases=3 Linecode=breaker_3_3_3_3

New Line.breaker(r:p3uhs22_69-p3uts0_69)p3u_206579 Units=km Length=0.001 bus1=p3uhs22_69-p3uts0_69x.1.2.3 bus2=p3uhs22_69.1.2.3 switch=y enabled=y phases=3 Linecode=breaker_3_3_3_3

New Line.breaker(r:p3uhs13_69-p3uts4_69)p3u_206580 Units=km Length=0.001 bus1=p3uts4_69.1.2.3 bus2=p3uhs13_69-p3uts4_69xx.1.2.3 switch=y enabled=y phases=3 Linecode=breaker_3_3_3_3

New Line.breaker(r:p3uhs13_69-p3uts4_69)p3u_206581 Units=km Length=0.001 bus1=p3uhs13_69-p3uts4_69x.1.2.3 bus2=p3uhs13_69.1.2.3 switch=y enabled=y phases=3 Linecode=breaker_3_5_3_2_3_3

New Line.breaker(r:p3uhs11_69-p3uts3_69)p3u_206582 Units=km Length=0.001 bus1=p3uts3_69.1.2.3 bus2=p3uhs11_69-p3uts3_69xx.1.2.3 switch=y enabled=y phases=3 Linecode=breaker_3_3_3_3

New Line.breaker(r:p3uhs11_69-p3uts3_69)p3u_206583 Units=km Length=0.001 bus1=p3uhs11_69-p3uts3_69x.1.2.3 bus2=p3uhs11_69.1.2.3 switch=y enabled=y phases=3 Linecode=breaker_3_5_3_2_3_2_3_2

New Line.breaker(r:p3uhs0_69-p3uts0_69)p3u_206584 Units=km Length=0.001 bus1=p3uts0_69.1.2.3 bus2=p3uhs0_69-p3uts0_69xx.1.2.3 switch=y enabled=y phases=3 Linecode=breaker_3_5_3_2_3_3

New Line.breaker(r:p3uhs0_69-p3uts0_69)p3u_206585 Units=km Length=0.001 bus1=p3uhs0_69-p3uts0_69x.1.2.3 bus2=p3uhs0_69.1.2.3 switch=y enabled=y phases=3 Linecode=breaker_3_5_3_2_3_3

New Line.breaker(r:p3uhs22_69-p3uhs3_69)p3u_206586 Units=km Length=0.001 bus1=p3uhs22_69.1.2.3 bus2=p3uhs22_69-p3uhs3_69x.1.2.3 switch=y enabled=y phases=3 Linecode=breaker_3_3_3_3

New Line.breaker(r:p3uhs22_69-p3uhs3_69)p3u_206587 Units=km Length=0.001 bus1=p3uhs22_69-p3uhs3_69xx.1.2.3 bus2=p3uhs3_69.1.2.3 switch=y enabled=y phases=3 Linecode=breaker_3_5_3_3_3

New Line.breaker(r:p3uhs26_69-p3uts1_69)p3u_206588 Units=km Length=0.001 bus1=p3uts1_69.1.2.3 bus2=p3uhs26_69-p3uts1_69xxx.1.2.3 switch=y enabled=y phases=3 Linecode=breaker_3_5_3_2_3_2_3_2

New Line.breaker(r:p3uhs26_69-p3uts1_69)p3u_206589 Units=km Length=0.001 bus1=p3uhs26_69-p3uts1_69x.1.2.3 bus2=p3uhs26_69.1.2.3 switch=y enabled=y phases=3 Linecode=breaker_3_3_3_3

New Line.breaker(r:p3uhs5_69-p3uts3_69)p3u_206590 Units=km Length=0.001 bus1=p3uts3_69.1.2.3 bus2=p3uhs5_69-p3uts3_69xx.1.2.3 switch=y enabled=y phases=3 Linecode=breaker_3_3_3_3

New Line.breaker(r:p3uhs5_69-p3uts3_69)p3u_206591 Units=km Length=0.001 bus1=p3uhs5_69-p3uts3_69x.1.2.3 bus2=p3uhs5_69.1.2.3 switch=y enabled=y phases=3 Linecode=breaker_3_5_3_2_3_2_3_2

New Line.breaker(r:p3uhs1_69-p3uhs2_69)p3u_206592 Units=km Length=0.001 bus1=p3uhs1_69.1.2.3 bus2=p3uhs1_69-p3uhs2_69x.1.2.3 switch=y enabled=y phases=3 Linecode=breaker_3_3_3_3

New Line.breaker(r:p3uhs1_69-p3uhs2_69)p3u_206593 Units=km Length=0.001 bus1=p3uhs1_69-p3uhs2_69xx.1.2.3 bus2=p3uhs2_69.1.2.3 switch=y enabled=y phases=3 Linecode=breaker_3_5_3_2_3_2_3_2

