New Line.l(r:p1rdt36lv-p1rlv4762) Units=km Length=0.014269800000000001 bus1=p1rdt36lv.1.2 bus2=p1rlv4762.1.2 switch=n enabled=y phases=2 Linecode=1P_OH_AL_2/0_Rucina_0_416_0_2_2_2_2_2_2_2_2_2_2_2_2_2_2_2_2_2_2_2_2_2_2_2_2_2_2_2_2_2

New Line.l(r:p1rdm80-p1rlv37) Units=km Length=0.0128654 bus1=p1rdm80.1.2 bus2=p1rlv37.1.2 switch=n enabled=y phases=2 Linecode=1P_OH_AL_2/0_Rucina_0_416_0_2_2_2_2_2_2_2_2_2_2_2_2_2_2_2_2_2_2_2_2_2_2_2_2_2_2_2_2_2

New Line.l(r:p1rdm81-p1rlv2182) Units=km Length=0.0153598 bus1=p1rdm81.1.2 bus2=p1rlv2182.1.2 switch=n enabled=y phases=2 Linecode=1P_OH_AL_2/0_Rucina_0_416_0_2_2_2_2_2_2_2_2_2_2_2_2_2_2_2_2_2_2_2_2_2_2_2_2_2_2_2_2_2

New Line.l(r:p1rdm80-p1rdm81) Units=km Length=0.0609547 bus1=p1rdm80.1.2 bus2=p1rdm81.1.2 switch=n enabled=y phases=2 Linecode=1P_OH_AL_4/0_Zuzara_0_416_0_2_2_2_2_2_2_2_2_2_2_2_2_2_2_2_2_2_2_2_2_2_2_2_2_2_2_2_2_2

New Line.l(r:p1rdm80-p1rdt36lv) Units=km Length=0.0161669 bus1=p1rdt36lv.1.2 bus2=p1rdm80.1.2 switch=n enabled=y phases=2 Linecode=1P_OH_AL_2/0_Rucina_0_416_0_2_2_2_2_2_2_2_2_2_2_2_2_2_2_2_2_2_2_2_2_2_2_2_2_2_2_2_2_2

New Line.l(r:p1rdm83-p1rlv4914) Units=km Length=0.0148261 bus1=p1rdm83.1.2 bus2=p1rlv4914.1.2 switch=n enabled=y phases=2 Linecode=1P_OH_AL_2/0_Rucina_0_416_0_2_2_2_2_2_2_2_2_2_2_2_2_2_2_2_2_2_2_2_2_2_2_2_2_2_2_2_2_2

New Line.l(r:p1rdm83-p1rdt36lv) Units=km Length=0.0161709 bus1=p1rdt36lv.1.2 bus2=p1rdm83.1.2 switch=n enabled=y phases=2 Linecode=1P_OH_AL_2/0_Rucina_0_416_0_2_2_2_2_2_2_2_2_2_2_2_2_2_2_2_2_2_2_2_2_2_2_2_2_2_2_2_2_2

New Line.l(r:p1rdt37lv-p1rlv1915) Units=km Length=0.0128781 bus1=p1rdt37lv.1.2 bus2=p1rlv1915.1.2 switch=n enabled=y phases=2 Linecode=1P_OH_AL_2/0_Rucina_0_416_0_2_2_2_2_2_2_2_2_2_2_2_2_2_2_2_2_2_2_2_2_2_2_2_2_2_2_2_2_2

New Line.l(r:p1rdt37lv-p1rlv2599) Units=km Length=0.0141853 bus1=p1rdt37lv.1.2 bus2=p1rlv2599.1.2 switch=n enabled=y phases=2 Linecode=1P_OH_AL_2/0_Rucina_0_416_0_2_2_2_2_2_2_2_2_2_2_2_2_2_2_2_2_2_2_2_2_2_2_2_2_2_2_2_2_2

New Line.l(r:p1rdm84-p1rlv38) Units=km Length=0.0141586 bus1=p1rdm84.1.2 bus2=p1rlv38.1.2 switch=n enabled=y phases=2 Linecode=1P_OH_AL_2/0_Rucina_0_416_0_2_2_2_2_2_2_2_2_2_2_2_2_2_2_2_2_2_2_2_2_2_2_2_2_2_2_2_2_2

New Line.l(r:p1rdm84-p1rdt37lv) Units=km Length=0.0189119 bus1=p1rdt37lv.1.2 bus2=p1rdm84.1.2 switch=n enabled=y phases=2 Linecode=1P_OH_AL_2/0_Rucina_0_416_0_2_2_2_2_2_2_2_2_2_2_2_2_2_2_2_2_2_2_2_2_2_2_2_2_2_2_2_2_2

New Line.l(r:p1rdm86-p1rlv2466) Units=km Length=0.0153626 bus1=p1rdm86.1.2 bus2=p1rlv2466.1.2 switch=n enabled=y phases=2 Linecode=1P_OH_AL_2/0_Rucina_0_416_0_2_2_2_2_2_2_2_2_2_2_2_2_2_2_2_2_2_2_2_2_2_2_2_2_2_2_2_2_2

New Line.l(r:p1rdm86-p1rdt37lv) Units=km Length=0.0189119 bus1=p1rdt37lv.1.2 bus2=p1rdm86.1.2 switch=n enabled=y phases=2 Linecode=1P_OH_AL_2/0_Rucina_0_416_0_2_2_2_2_2_2_2_2_2_2_2_2_2_2_2_2_2_2_2_2_2_2_2_2_2_2_2_2_2

New Line.l(r:p1rdt40lv-p1rlv12778) Units=km Length=0.0668868 bus1=p1rdt40lv.1.2 bus2=p1rlv12778.1.2 switch=n enabled=y phases=2 Linecode=1P_OH_AL_4/0_Zuzara_0_416_0_2_2_2_2_2_2_2_2_2_2_2_2_2_2_2_2_2_2_2_2_2_2_2_2_2_2_2_2_2

New Line.l(r:p1rdm94-p1rlv41) Units=km Length=0.0567624 bus1=p1rdm94.1.2 bus2=p1rlv41.1.2 switch=n enabled=y phases=2 Linecode=1P_OH_AL_4/0_Zuzara_0_416_0_2_2_2_2_2_2_2_2_2_2_2_2_2_2_2_2_2_2_2_2_2_2_2_2_2_2_2_2_2

New Line.l(r:p1rdm94-p1rlv13299) Units=km Length=0.0398859 bus1=p1rdm94.1.2 bus2=p1rlv13299.1.2 switch=n enabled=y phases=2 Linecode=1P_OH_AL_4/0_Zuzara_0_416_0_2_2_2_2_2_2_2_2_2_2_2_2_2_2_2_2_2_2_2_2_2_2_2_2_2_2_2_2_2

New Line.l(r:p1rdm94-p1rdt40lv) Units=km Length=0.019493 bus1=p1rdt40lv.1.2 bus2=p1rdm94.1.2 switch=n enabled=y phases=2 Linecode=1P_OH_AL_2/0_Rucina_0_416_0_2_2_2_2_2_2_2_2_2_2_2_2_2_2_2_2_2_2_2_2_2_2_2_2_2_2_2_2_2

New Line.l(r:p1rdm95-p1rlv7674) Units=km Length=0.0324986 bus1=p1rdm95.1.2 bus2=p1rlv7674.1.2 switch=n enabled=y phases=2 Linecode=1P_OH_AL_4/0_Zuzara_0_416_0_2_2_2_2_2_2_2_2_2_2_2_2_2_2_2_2_2_2_2_2_2_2_2_2_2_2_2_2_2

New Line.l(r:p1rdm95-p1rdt40lv) Units=km Length=0.0195065 bus1=p1rdt40lv.1.2 bus2=p1rdm95.1.2 switch=n enabled=y phases=2 Linecode=1P_OH_AL_2/0_Rucina_0_416_0_2_2_2_2_2_2_2_2_2_2_2_2_2_2_2_2_2_2_2_2_2_2_2_2_2_2_2_2_2

New Line.l(r:p1rdt42lv-p1rlv43) Units=km Length=0.001 bus1=p1rdt42lv.1.2 bus2=p1rlv43.1.2 switch=n enabled=y phases=2 Linecode=1P_OH_AL_4_Periwinkle_0_416_0_2_2_2_2_2_2_2_2_2_2_2_2_2_2_2_2_2_2_2_2_2_2_2_2_2_2_2_2_2

New Line.l(r:p1rdt58lv-p1rlv4498) Units=km Length=0.0398312 bus1=p1rdt58lv.1.2 bus2=p1rlv4498.1.2 switch=n enabled=y phases=2 Linecode=1P_OH_AL_4/0_Zuzara_0_416_0_2_2_2_2_2_2_2_2_2_2_2_2_2_2_2_2_2_2_2_2_2_2_2_2_2_2_2_2_2

New Line.l(r:p1rdt58lv-p1rlv8456) Units=km Length=0.04528070000000001 bus1=p1rdt58lv.1.2 bus2=p1rlv8456.1.2 switch=n enabled=y phases=2 Linecode=1P_OH_AL_4/0_Zuzara_0_416_0_2_2_2_2_2_2_2_2_2_2_2_2_2_2_2_2_2_2_2_2_2_2_2_2_2_2_2_2_2

New Line.l(r:p1rdm137-p1rlv59) Units=km Length=0.106863 bus1=p1rdm137.1.2 bus2=p1rlv59.1.2 switch=n enabled=y phases=2 Linecode=1P_OH_AL_4/0_Zuzara_0_416_0_2_2_2_2_2_2_2_2_2_2_2_2_2_2_2_2_2_2_2_2_2_2_2_2_2_2_2_2_2

New Line.l(r:p1rdm140-p1rlv5718) Units=km Length=0.0348909 bus1=p1rdm140.1.2 bus2=p1rlv5718.1.2 switch=n enabled=y phases=2 Linecode=1P_OH_AL_4/0_Zuzara_0_416_0_2_2_2_2_2_2_2_2_2_2_2_2_2_2_2_2_2_2_2_2_2_2_2_2_2_2_2_2_2

New Line.l(r:p1rdm137-p1rdm140) Units=km Length=0.0186818 bus1=p1rdm137.1.2 bus2=p1rdm140.1.2 switch=n enabled=y phases=2 Linecode=1P_OH_AL_2/0_Rucina_0_416_0_2_2_2_2_2_2_2_2_2_2_2_2_2_2_2_2_2_2_2_2_2_2_2_2_2_2_2_2_2

New Line.l(r:p1rdm137-p1rdt58lv) Units=km Length=0.0189128 bus1=p1rdt58lv.1.2 bus2=p1rdm137.1.2 switch=n enabled=y phases=2 Linecode=1P_OH_AL_2/0_Rucina_0_416_0_2_2_2_2_2_2_2_2_2_2_2_2_2_2_2_2_2_2_2_2_2_2_2_2_2_2_2_2_2

New Line.l(r:p1rdm139-p1rlv4634) Units=km Length=0.0384318 bus1=p1rdm139.1.2 bus2=p1rlv4634.1.2 switch=n enabled=y phases=2 Linecode=1P_OH_AL_4/0_Zuzara_0_416_0_2_2_2_2_2_2_2_2_2_2_2_2_2_2_2_2_2_2_2_2_2_2_2_2_2_2_2_2_2

New Line.l(r:p1rdm139-p1rdt58lv) Units=km Length=0.0162685 bus1=p1rdt58lv.1.2 bus2=p1rdm139.1.2 switch=n enabled=y phases=2 Linecode=1P_OH_AL_2/0_Rucina_0_416_0_2_2_2_2_2_2_2_2_2_2_2_2_2_2_2_2_2_2_2_2_2_2_2_2_2_2_2_2_2

New Line.l(r:p1rdt166lv-p1rlv171) Units=km Length=0.013724 bus1=p1rdt166lv.1.2 bus2=p1rlv171.1.2 switch=n enabled=y phases=2 Linecode=1P_OH_AL_2/0_Rucina_0_416_0_2_2_2_2_2_2_2_2_2_2_2_2_2_2_2_2_2_2_2_2_2_2_2_2_2_2_2_2_2

New Line.l(r:p1rdt166lv-p1rlv5424) Units=km Length=0.0136341 bus1=p1rdt166lv.1.2 bus2=p1rlv5424.1.2 switch=n enabled=y phases=2 Linecode=1P_OH_AL_2/0_Rucina_0_416_0_2_2_2_2_2_2_2_2_2_2_2_2_2_2_2_2_2_2_2_2_2_2_2_2_2_2_2_2_2

New Line.l(r:p1rdm397-p1rlv5822) Units=km Length=0.01415 bus1=p1rdm397.1.2 bus2=p1rlv5822.1.2 switch=n enabled=y phases=2 Linecode=1P_OH_AL_2/0_Rucina_0_416_0_2_2_2_2_2_2_2_2_2_2_2_2_2_2_2_2_2_2_2_2_2_2_2_2_2_2_2_2_2

New Line.l(r:p1rdm397-p1rdt166lv) Units=km Length=0.0198275 bus1=p1rdt166lv.1.2 bus2=p1rdm397.1.2 switch=n enabled=y phases=2 Linecode=1P_OH_AL_2/0_Rucina_0_416_0_2_2_2_2_2_2_2_2_2_2_2_2_2_2_2_2_2_2_2_2_2_2_2_2_2_2_2_2_2

New Line.l(r:p1rdt167lv-p1rlv172) Units=km Length=0.0136024 bus1=p1rdt167lv.1.2 bus2=p1rlv172.1.2 switch=n enabled=y phases=2 Linecode=1P_OH_AL_2/0_Rucina_0_416_0_2_2_2_2_2_2_2_2_2_2_2_2_2_2_2_2_2_2_2_2_2_2_2_2_2_2_2_2_2

New Line.l(r:p1rdt167lv-p1rlv703) Units=km Length=0.0137912 bus1=p1rdt167lv.1.2 bus2=p1rlv703.1.2 switch=n enabled=y phases=2 Linecode=1P_OH_AL_2/0_Rucina_0_416_0_2_2_2_2_2_2_2_2_2_2_2_2_2_2_2_2_2_2_2_2_2_2_2_2_2_2_2_2_2

New Line.l(r:p1rdt167lv-p1rlv7248) Units=km Length=0.0143012 bus1=p1rdt167lv.1.2 bus2=p1rlv7248.1.2 switch=n enabled=y phases=2 Linecode=1P_OH_AL_2/0_Rucina_0_416_0_2_2_2_2_2_2_2_2_2_2_2_2_2_2_2_2_2_2_2_2_2_2_2_2_2_2_2_2_2

New Line.l(r:p1rdm400-p1rlv6340) Units=km Length=0.0136047 bus1=p1rdm400.1.2 bus2=p1rlv6340.1.2 switch=n enabled=y phases=2 Linecode=1P_OH_AL_2/0_Rucina_0_416_0_2_2_2_2_2_2_2_2_2_2_2_2_2_2_2_2_2_2_2_2_2_2_2_2_2_2_2_2_2

New Line.l(r:p1rdm400-p1rlv7672) Units=km Length=0.0149512 bus1=p1rdm400.1.2 bus2=p1rlv7672.1.2 switch=n enabled=y phases=2 Linecode=1P_OH_AL_2/0_Rucina_0_416_0_2_2_2_2_2_2_2_2_2_2_2_2_2_2_2_2_2_2_2_2_2_2_2_2_2_2_2_2_2

New Line.l(r:p1rdm400-p1rdt167lv) Units=km Length=0.0187718 bus1=p1rdt167lv.1.2 bus2=p1rdm400.1.2 switch=n enabled=y phases=2 Linecode=1P_OH_AL_2/0_Rucina_0_416_0_2_2_2_2_2_2_2_2_2_2_2_2_2_2_2_2_2_2_2_2_2_2_2_2_2_2_2_2_2

New Line.l(r:p1rdt303lv-p1rlv311) Units=km Length=0.00743657 bus1=p1rdt303lv.1.2 bus2=p1rlv311.1.2 switch=n enabled=y phases=2 Linecode=1P_OH_AL_2/0_Rucina_0_416_0_2_2_2_2_2_2_2_2_2_2_2_2_2_2_2_2_2_2_2_2_2_2_2_2_2_2_2_2_2

New Line.l(r:p1rdt303lv-p1rlv2601) Units=km Length=0.00743657 bus1=p1rdt303lv.1.2 bus2=p1rlv2601.1.2 switch=n enabled=y phases=2 Linecode=1P_OH_AL_2/0_Rucina_0_416_0_2_2_2_2_2_2_2_2_2_2_2_2_2_2_2_2_2_2_2_2_2_2_2_2_2_2_2_2_2

New Line.l(r:p1rdt304lv-p1rlv312) Units=km Length=0.043173 bus1=p1rdt304lv.1.2 bus2=p1rlv312.1.2 switch=n enabled=y phases=2 Linecode=1P_OH_AL_4/0_Zuzara_0_416_0_2_2_2_2_2_2_2_2_2_2_2_2_2_2_2_2_2_2_2_2_2_2_2_2_2_2_2_2_2

New Line.l(r:p1rdt304lv-p1rlv2602) Units=km Length=0.0210719 bus1=p1rdt304lv.1.2 bus2=p1rlv2602.1.2 switch=n enabled=y phases=2 Linecode=1P_OH_AL_2/0_Rucina_0_416_0_2_2_2_2_2_2_2_2_2_2_2_2_2_2_2_2_2_2_2_2_2_2_2_2_2_2_2_2_2

New Line.l(r:p1rdt304lv-p1rlv8442) Units=km Length=0.0240031 bus1=p1rdt304lv.1.2 bus2=p1rlv8442.1.2 switch=n enabled=y phases=2 Linecode=1P_OH_AL_2/0_Rucina_0_416_0_2_2_2_2_2_2_2_2_2_2_2_2_2_2_2_2_2_2_2_2_2_2_2_2_2_2_2_2_2

New Line.l(r:p1rdt304lv-p1rlv8851) Units=km Length=0.0128349 bus1=p1rdt304lv.1.2 bus2=p1rlv8851.1.2 switch=n enabled=y phases=2 Linecode=1P_OH_AL_2/0_Rucina_0_416_0_2_2_2_2_2_2_2_2_2_2_2_2_2_2_2_2_2_2_2_2_2_2_2_2_2_2_2_2_2

New Line.l(r:p1rdt304lv-p1rlv10452) Units=km Length=0.024532800000000004 bus1=p1rdt304lv.1.2 bus2=p1rlv10452.1.2 switch=n enabled=y phases=2 Linecode=1P_OH_AL_2/0_Rucina_0_416_0_2_2_2_2_2_2_2_2_2_2_2_2_2_2_2_2_2_2_2_2_2_2_2_2_2_2_2_2_2

New Line.l(r:p1rdm726-p1rlv6723) Units=km Length=0.0243161 bus1=p1rdm726.1.2 bus2=p1rlv6723.1.2 switch=n enabled=y phases=2 Linecode=1P_OH_AL_2/0_Rucina_0_416_0_2_2_2_2_2_2_2_2_2_2_2_2_2_2_2_2_2_2_2_2_2_2_2_2_2_2_2_2_2

New Line.l(r:p1rdm726-p1rdt304lv) Units=km Length=0.139479 bus1=p1rdt304lv.1.2 bus2=p1rdm726.1.2 switch=n enabled=y phases=2 Linecode=1P_OH_AL_4/0_Zuzara_0_416_0_2_2_2_2_2_2_2_2_2_2_2_2_2_2_2_2_2_2_2_2_2_2_2_2_2_2_2_2_2

New Line.l(r:p1rdt548lv-p1rlv562) Units=km Length=0.0217023 bus1=p1rdt548lv.1.2 bus2=p1rlv562.1.2 switch=n enabled=y phases=2 Linecode=1P_OH_AL_2/0_Rucina_0_416_0_2_2_2_2_2_2_2_2_2_2_2_2_2_2_2_2_2_2_2_2_2_2_2_2_2_2_2_2_2

New Line.l(r:p1rdt548lv-p1rlv702) Units=km Length=0.0224323 bus1=p1rdt548lv.1.2 bus2=p1rlv702.1.2 switch=n enabled=y phases=2 Linecode=1P_OH_AL_2/0_Rucina_0_416_0_2_2_2_2_2_2_2_2_2_2_2_2_2_2_2_2_2_2_2_2_2_2_2_2_2_2_2_2_2

New Line.l(r:p1rdt548lv-p1rlv5959) Units=km Length=0.0229649 bus1=p1rdt548lv.1.2 bus2=p1rlv5959.1.2 switch=n enabled=y phases=2 Linecode=1P_OH_AL_2/0_Rucina_0_416_0_2_2_2_2_2_2_2_2_2_2_2_2_2_2_2_2_2_2_2_2_2_2_2_2_2_2_2_2_2

New Line.l(r:p1rdt548lv-p1rlv6721) Units=km Length=0.0204416 bus1=p1rdt548lv.1.2 bus2=p1rlv6721.1.2 switch=n enabled=y phases=2 Linecode=1P_OH_AL_2/0_Rucina_0_416_0_2_2_2_2_2_2_2_2_2_2_2_2_2_2_2_2_2_2_2_2_2_2_2_2_2_2_2_2_2

New Line.l(r:p1rdm1282-p1rlv4052) Units=km Length=0.0208286 bus1=p1rdm1282.1.2 bus2=p1rlv4052.1.2 switch=n enabled=y phases=2 Linecode=1P_OH_AL_2/0_Rucina_0_416_0_2_2_2_2_2_2_2_2_2_2_2_2_2_2_2_2_2_2_2_2_2_2_2_2_2_2_2_2_2

New Line.l(r:p1rdm1282-p1rlv13812) Units=km Length=0.0191418 bus1=p1rdm1282.1.2 bus2=p1rlv13812.1.2 switch=n enabled=y phases=2 Linecode=1P_OH_AL_2/0_Rucina_0_416_0_2_2_2_2_2_2_2_2_2_2_2_2_2_2_2_2_2_2_2_2_2_2_2_2_2_2_2_2_2

New Line.l(r:p1rdm1282-p1rdt548lv) Units=km Length=0.00869246 bus1=p1rdt548lv.1.2 bus2=p1rdm1282.1.2 switch=n enabled=y phases=2 Linecode=1P_OH_AL_2/0_Rucina_0_416_0_2_2_2_2_2_2_2_2_2_2_2_2_2_2_2_2_2_2_2_2_2_2_2_2_2_2_2_2_2

New Line.l(r:p1rdt551lv-p1rlv565) Units=km Length=0.001 bus1=p1rdt551lv.1.2 bus2=p1rlv565.1.2 switch=n enabled=y phases=2 Linecode=1P_OH_AL_4_Periwinkle_0_416_0_2_2_2_2_2_2_2_2_2_2_2_2_2_2_2_2_2_2_2_2_2_2_2_2_2_2_2_2_2

New Line.l(r:p1rdt560lv-p1rlv574) Units=km Length=0.0101948 bus1=p1rdt560lv.1.2 bus2=p1rlv574.1.2 switch=n enabled=y phases=2 Linecode=1P_OH_AL_2/0_Rucina_0_416_0_2_2_2_2_2_2_2_2_2_2_2_2_2_2_2_2_2_2_2_2_2_2_2_2_2_2_2_2_2

New Line.l(r:p1rdt680lv-p1rlv708) Units=km Length=0.024168200000000004 bus1=p1rdt680lv.1.2 bus2=p1rlv708.1.2 switch=n enabled=y phases=2 Linecode=1P_OH_AL_2/0_Rucina_0_416_0_2_2_2_2_2_2_2_2_2_2_2_2_2_2_2_2_2_2_2_2_2_2_2_2_2_2_2_2_2

New Line.l(r:p1rdm1570-p1rlv1240) Units=km Length=0.0237706 bus1=p1rdm1570.1.2 bus2=p1rlv1240.1.2 switch=n enabled=y phases=2 Linecode=1P_OH_AL_2/0_Rucina_0_416_0_2_2_2_2_2_2_2_2_2_2_2_2_2_2_2_2_2_2_2_2_2_2_2_2_2_2_2_2_2

New Line.l(r:p1rdm1570-p1rdt680lv) Units=km Length=0.0196125 bus1=p1rdt680lv.1.2 bus2=p1rdm1570.1.2 switch=n enabled=y phases=2 Linecode=1P_OH_AL_2/0_Rucina_0_416_0_2_2_2_2_2_2_2_2_2_2_2_2_2_2_2_2_2_2_2_2_2_2_2_2_2_2_2_2_2

New Line.l(r:p1rdm1571-p1rlv3118) Units=km Length=0.0417594 bus1=p1rdm1571.1.2 bus2=p1rlv3118.1.2 switch=n enabled=y phases=2 Linecode=1P_OH_AL_4/0_Zuzara_0_416_0_2_2_2_2_2_2_2_2_2_2_2_2_2_2_2_2_2_2_2_2_2_2_2_2_2_2_2_2_2

New Line.l(r:p1rdm1571-p1rlv11847) Units=km Length=0.0265062 bus1=p1rdm1571.1.2 bus2=p1rlv11847.1.2 switch=n enabled=y phases=2 Linecode=1P_OH_AL_2/0_Rucina_0_416_0_2_2_2_2_2_2_2_2_2_2_2_2_2_2_2_2_2_2_2_2_2_2_2_2_2_2_2_2_2

New Line.l(r:p1rdm1571-p1rdt680lv) Units=km Length=0.0176852 bus1=p1rdt680lv.1.2 bus2=p1rdm1571.1.2 switch=n enabled=y phases=2 Linecode=1P_OH_AL_2/0_Rucina_0_416_0_2_2_2_2_2_2_2_2_2_2_2_2_2_2_2_2_2_2_2_2_2_2_2_2_2_2_2_2_2

New Line.l(r:p1rdt681lv-p1rlv709) Units=km Length=0.0690093 bus1=p1rdt681lv.1.2 bus2=p1rlv709.1.2 switch=n enabled=y phases=2 Linecode=1P_OH_AL_4/0_Zuzara_0_416_0_2_2_2_2_2_2_2_2_2_2_2_2_2_2_2_2_2_2_2_2_2_2_2_2_2_2_2_2_2

New Line.l(r:p1rdt682lv-p1rlv710) Units=km Length=0.001 bus1=p1rdt682lv.1.2 bus2=p1rlv710.1.2 switch=n enabled=y phases=2 Linecode=1P_OH_AL_4_Periwinkle_0_416_0_2_2_2_2_2_2_2_2_2_2_2_2_2_2_2_2_2_2_2_2_2_2_2_2_2_2_2_2_2

New Line.l(r:p1rdt821lv-p1rlv858) Units=km Length=0.0393585 bus1=p1rdt821lv.1.2 bus2=p1rlv858.1.2 switch=n enabled=y phases=2 Linecode=1P_UG_AL_1/0_Brenau_0_416_0_2_2_2_2_2_2_2_2_2_2_2_2_2_2_2_2_2_2_2_2_2_2_2_2_2_2_2_2_2

New Line.l(r:p1rdt949lv-p1rlv5282) Units=km Length=0.0133857 bus1=p1rdt949lv.1.2 bus2=p1rlv5282.1.2 switch=n enabled=y phases=2 Linecode=1P_OH_AL_2/0_Rucina_0_416_0_2_2_2_2_2_2_2_2_2_2_2_2_2_2_2_2_2_2_2_2_2_2_2_2_2_2_2_2_2

New Line.l(r:p1rdt949lv-p1rlv8176) Units=km Length=0.0162517 bus1=p1rdt949lv.1.2 bus2=p1rlv8176.1.2 switch=n enabled=y phases=2 Linecode=1P_OH_AL_2/0_Rucina_0_416_0_2_2_2_2_2_2_2_2_2_2_2_2_2_2_2_2_2_2_2_2_2_2_2_2_2_2_2_2_2

New Line.l(r:p1rdt949lv-p1rlv9499) Units=km Length=0.0130243 bus1=p1rdt949lv.1.2 bus2=p1rlv9499.1.2 switch=n enabled=y phases=2 Linecode=1P_OH_AL_2/0_Rucina_0_416_0_2_2_2_2_2_2_2_2_2_2_2_2_2_2_2_2_2_2_2_2_2_2_2_2_2_2_2_2_2

New Line.l(r:p1rdm2145-p1rlv997) Units=km Length=0.0147498 bus1=p1rdm2145.1.2 bus2=p1rlv997.1.2 switch=n enabled=y phases=2 Linecode=1P_OH_AL_2/0_Rucina_0_416_0_2_2_2_2_2_2_2_2_2_2_2_2_2_2_2_2_2_2_2_2_2_2_2_2_2_2_2_2_2

New Line.l(r:p1rdm2145-p1rlv1777) Units=km Length=0.0148926 bus1=p1rdm2145.1.2 bus2=p1rlv1777.1.2 switch=n enabled=y phases=2 Linecode=1P_OH_AL_2/0_Rucina_0_416_0_2_2_2_2_2_2_2_2_2_2_2_2_2_2_2_2_2_2_2_2_2_2_2_2_2_2_2_2_2

New Line.l(r:p1rdm2145-p1rdt949lv) Units=km Length=0.019143300000000002 bus1=p1rdt949lv.1.2 bus2=p1rdm2145.1.2 switch=n enabled=y phases=2 Linecode=1P_OH_AL_2/0_Rucina_0_416_0_2_2_2_2_2_2_2_2_2_2_2_2_2_2_2_2_2_2_2_2_2_2_2_2_2_2_2_2_2

New Line.l(r:p1rdt951lv-p1rlv999) Units=km Length=0.05697870000000001 bus1=p1rdt951lv.1.2 bus2=p1rlv999.1.2 switch=n enabled=y phases=2 Linecode=1P_OH_AL_4/0_Zuzara_0_416_0_2_2_2_2_2_2_2_2_2_2_2_2_2_2_2_2_2_2_2_2_2_2_2_2_2_2_2_2_2

New Line.l(r:p1rdt951lv-p1rlv12405) Units=km Length=0.0676975 bus1=p1rdt951lv.1.2 bus2=p1rlv12405.1.2 switch=n enabled=y phases=2 Linecode=1P_OH_AL_4/0_Zuzara_0_416_0_2_2_2_2_2_2_2_2_2_2_2_2_2_2_2_2_2_2_2_2_2_2_2_2_2_2_2_2_2

New Line.l(r:p1rdt952lv-p1rlv1000) Units=km Length=0.0250503 bus1=p1rdt952lv.1.2 bus2=p1rlv1000.1.2 switch=n enabled=y phases=2 Linecode=1P_OH_AL_2/0_Rucina_0_416_0_2_2_2_2_2_2_2_2_2_2_2_2_2_2_2_2_2_2_2_2_2_2_2_2_2_2_2_2_2

New Line.l(r:p1rdt953lv-p1rlv1001) Units=km Length=0.0261931 bus1=p1rdt953lv.1.2 bus2=p1rlv1001.1.2 switch=n enabled=y phases=2 Linecode=1P_OH_AL_2/0_Rucina_0_416_0_2_2_2_2_2_2_2_2_2_2_2_2_2_2_2_2_2_2_2_2_2_2_2_2_2_2_2_2_2

New Line.l(r:p1rdt953lv-p1rlv10310) Units=km Length=0.0497365 bus1=p1rdt953lv.1.2 bus2=p1rlv10310.1.2 switch=n enabled=y phases=2 Linecode=1P_OH_AL_4/0_Zuzara_0_416_0_2_2_2_2_2_2_2_2_2_2_2_2_2_2_2_2_2_2_2_2_2_2_2_2_2_2_2_2_2

New Line.l(r:p1rdt953lv-p1rlv12406) Units=km Length=0.030457500000000002 bus1=p1rdt953lv.1.2 bus2=p1rlv12406.1.2 switch=n enabled=y phases=2 Linecode=1P_OH_AL_4/0_Zuzara_0_416_0_2_2_2_2_2_2_2_2_2_2_2_2_2_2_2_2_2_2_2_2_2_2_2_2_2_2_2_2_2

New Line.l(r:p1rdm2158-p1rlv6093) Units=km Length=0.037207 bus1=p1rdm2158.1.2 bus2=p1rlv6093.1.2 switch=n enabled=y phases=2 Linecode=1P_OH_AL_4/0_Zuzara_0_416_0_2_2_2_2_2_2_2_2_2_2_2_2_2_2_2_2_2_2_2_2_2_2_2_2_2_2_2_2_2

New Line.l(r:p1rdm2158-p1rdt953lv) Units=km Length=0.145678 bus1=p1rdt953lv.1.2 bus2=p1rdm2158.1.2 switch=n enabled=y phases=2 Linecode=1P_OH_AL_4/0_Zuzara_0_416_0_2_2_2_2_2_2_2_2_2_2_2_2_2_2_2_2_2_2_2_2_2_2_2_2_2_2_2_2_2

New Line.l(r:p1rdt954lv-p1rlv1002) Units=km Length=0.0181385 bus1=p1rdt954lv.1.2 bus2=p1rlv1002.1.2 switch=n enabled=y phases=2 Linecode=1P_OH_AL_2/0_Rucina_0_416_0_2_2_2_2_2_2_2_2_2_2_2_2_2_2_2_2_2_2_2_2_2_2_2_2_2_2_2_2_2

New Line.l(r:p1rdt954lv-p1rlv11718) Units=km Length=0.0181385 bus1=p1rdt954lv.1.2 bus2=p1rlv11718.1.2 switch=n enabled=y phases=2 Linecode=1P_OH_AL_2/0_Rucina_0_416_0_2_2_2_2_2_2_2_2_2_2_2_2_2_2_2_2_2_2_2_2_2_2_2_2_2_2_2_2_2

New Line.l(r:p1rdt1057lv-p1rlv2183) Units=km Length=0.0135861 bus1=p1rdt1057lv.1.2 bus2=p1rlv2183.1.2 switch=n enabled=y phases=2 Linecode=1P_OH_AL_2/0_Rucina_0_416_0_2_2_2_2_2_2_2_2_2_2_2_2_2_2_2_2_2_2_2_2_2_2_2_2_2_2_2_2_2

New Line.l(r:p1rdt1057lv-p1rlv5157) Units=km Length=0.0135629 bus1=p1rdt1057lv.1.2 bus2=p1rlv5157.1.2 switch=n enabled=y phases=2 Linecode=1P_OH_AL_2/0_Rucina_0_416_0_2_2_2_2_2_2_2_2_2_2_2_2_2_2_2_2_2_2_2_2_2_2_2_2_2_2_2_2_2

New Line.l(r:p1rdm2370-p1rlv1118) Units=km Length=0.0141161 bus1=p1rdm2370.1.2 bus2=p1rlv1118.1.2 switch=n enabled=y phases=2 Linecode=1P_OH_AL_2/0_Rucina_0_416_0_2_2_2_2_2_2_2_2_2_2_2_2_2_2_2_2_2_2_2_2_2_2_2_2_2_2_2_2_2

New Line.l(r:p1rdm2370-p1rdt1057lv) Units=km Length=0.0197828 bus1=p1rdt1057lv.1.2 bus2=p1rdm2370.1.2 switch=n enabled=y phases=2 Linecode=1P_OH_AL_2/0_Rucina_0_416_0_2_2_2_2_2_2_2_2_2_2_2_2_2_2_2_2_2_2_2_2_2_2_2_2_2_2_2_2_2

New Line.l(r:p1rdt1167lv-p1rlv1237) Units=km Length=0.0131149 bus1=p1rdt1167lv.1.2 bus2=p1rlv1237.1.2 switch=n enabled=y phases=2 Linecode=1P_OH_AL_2/0_Rucina_0_416_0_2_2_2_2_2_2_2_2_2_2_2_2_2_2_2_2_2_2_2_2_2_2_2_2_2_2_2_2_2

New Line.l(r:p1rdt1168lv-p1rlv1238) Units=km Length=0.0131725 bus1=p1rdt1168lv.1.2 bus2=p1rlv1238.1.2 switch=n enabled=y phases=2 Linecode=1P_OH_AL_2/0_Rucina_0_416_0_2_2_2_2_2_2_2_2_2_2_2_2_2_2_2_2_2_2_2_2_2_2_2_2_2_2_2_2_2

New Line.l(r:p1rdt1168lv-p1rlv11553) Units=km Length=0.0131725 bus1=p1rdt1168lv.1.2 bus2=p1rlv11553.1.2 switch=n enabled=y phases=2 Linecode=1P_OH_AL_2/0_Rucina_0_416_0_2_2_2_2_2_2_2_2_2_2_2_2_2_2_2_2_2_2_2_2_2_2_2_2_2_2_2_2_2

New Line.l(r:p1rdm2889-p1rlv1392) Units=km Length=0.0429007 bus1=p1rdm2889.1.2 bus2=p1rlv1392.1.2 switch=n enabled=y phases=2 Linecode=1P_OH_AL_4/0_Zuzara_0_416_0_2_2_2_2_2_2_2_2_2_2_2_2_2_2_2_2_2_2_2_2_2_2_2_2_2_2_2_2_2

New Line.l(r:p1rdm2889-p1rdt1302lv) Units=km Length=0.0186234 bus1=p1rdt1302lv.1.2 bus2=p1rdm2889.1.2 switch=n enabled=y phases=2 Linecode=1P_OH_AL_2/0_Rucina_0_416_0_2_2_2_2_2_2_2_2_2_2_2_2_2_2_2_2_2_2_2_2_2_2_2_2_2_2_2_2_2

New Line.l(r:p1rdm2890-p1rlv3806) Units=km Length=0.0434284 bus1=p1rdm2890.1.2 bus2=p1rlv3806.1.2 switch=n enabled=y phases=2 Linecode=1P_OH_AL_4/0_Zuzara_0_416_0_2_2_2_2_2_2_2_2_2_2_2_2_2_2_2_2_2_2_2_2_2_2_2_2_2_2_2_2_2

New Line.l(r:p1rdm2890-p1rdt1302lv) Units=km Length=0.0186194 bus1=p1rdt1302lv.1.2 bus2=p1rdm2890.1.2 switch=n enabled=y phases=2 Linecode=1P_OH_AL_2/0_Rucina_0_416_0_2_2_2_2_2_2_2_2_2_2_2_2_2_2_2_2_2_2_2_2_2_2_2_2_2_2_2_2_2

New Line.l(r:p1rdm2891-p1rlv1393) Units=km Length=0.023282600000000004 bus1=p1rdm2891.1.2 bus2=p1rlv1393.1.2 switch=n enabled=y phases=2 Linecode=1P_OH_AL_2/0_Rucina_0_416_0_2_2_2_2_2_2_2_2_2_2_2_2_2_2_2_2_2_2_2_2_2_2_2_2_2_2_2_2_2

New Line.l(r:p1rdm2891-p1rdt1303lv) Units=km Length=0.0199935 bus1=p1rdt1303lv.1.2 bus2=p1rdm2891.1.2 switch=n enabled=y phases=2 Linecode=1P_OH_AL_2/0_Rucina_0_416_0_2_2_2_2_2_2_2_2_2_2_2_2_2_2_2_2_2_2_2_2_2_2_2_2_2_2_2_2_2

New Line.l(r:p1rdm2892-p1rlv11160) Units=km Length=0.0340315 bus1=p1rdm2892.1.2 bus2=p1rlv11160.1.2 switch=n enabled=y phases=2 Linecode=1P_OH_AL_4/0_Zuzara_0_416_0_2_2_2_2_2_2_2_2_2_2_2_2_2_2_2_2_2_2_2_2_2_2_2_2_2_2_2_2_2

New Line.l(r:p1rdm2892-p1rdt1303lv) Units=km Length=0.0199976 bus1=p1rdt1303lv.1.2 bus2=p1rdm2892.1.2 switch=n enabled=y phases=2 Linecode=1P_OH_AL_2/0_Rucina_0_416_0_2_2_2_2_2_2_2_2_2_2_2_2_2_2_2_2_2_2_2_2_2_2_2_2_2_2_2_2_2

New Line.l(r:p1rdt1420lv-p1rlv1524) Units=km Length=0.0137371 bus1=p1rdt1420lv.1.2 bus2=p1rlv1524.1.2 switch=n enabled=y phases=2 Linecode=1P_OH_AL_2/0_Rucina_0_416_0_2_2_2_2_2_2_2_2_2_2_2_2_2_2_2_2_2_2_2_2_2_2_2_2_2_2_2_2_2

New Line.l(r:p1rdm3124-p1rlv13040) Units=km Length=0.0132628 bus1=p1rdm3124.1.2 bus2=p1rlv13040.1.2 switch=n enabled=y phases=2 Linecode=1P_OH_AL_2/0_Rucina_0_416_0_2_2_2_2_2_2_2_2_2_2_2_2_2_2_2_2_2_2_2_2_2_2_2_2_2_2_2_2_2

New Line.l(r:p1rdm3124-p1rdt1420lv) Units=km Length=0.0165359 bus1=p1rdt1420lv.1.2 bus2=p1rdm3124.1.2 switch=n enabled=y phases=2 Linecode=1P_OH_AL_2/0_Rucina_0_416_0_2_2_2_2_2_2_2_2_2_2_2_2_2_2_2_2_2_2_2_2_2_2_2_2_2_2_2_2_2

New Line.l(r:p1rdt1421lv-p1rlv4327) Units=km Length=0.014701700000000002 bus1=p1rdt1421lv.1.2 bus2=p1rlv4327.1.2 switch=n enabled=y phases=2 Linecode=1P_OH_AL_2/0_Rucina_0_416_0_2_2_2_2_2_2_2_2_2_2_2_2_2_2_2_2_2_2_2_2_2_2_2_2_2_2_2_2_2

New Line.l(r:p1rdm3125-p1rlv1525) Units=km Length=0.0156906 bus1=p1rdm3125.1.2 bus2=p1rlv1525.1.2 switch=n enabled=y phases=2 Linecode=1P_OH_AL_2/0_Rucina_0_416_0_2_2_2_2_2_2_2_2_2_2_2_2_2_2_2_2_2_2_2_2_2_2_2_2_2_2_2_2_2

New Line.l(r:p1rdm3125-p1rlv1648) Units=km Length=0.0125701 bus1=p1rdm3125.1.2 bus2=p1rlv1648.1.2 switch=n enabled=y phases=2 Linecode=1P_OH_AL_2/0_Rucina_0_416_0_2_2_2_2_2_2_2_2_2_2_2_2_2_2_2_2_2_2_2_2_2_2_2_2_2_2_2_2_2

New Line.l(r:p1rdm3125-p1rlv4328) Units=km Length=0.015741 bus1=p1rdm3125.1.2 bus2=p1rlv4328.1.2 switch=n enabled=y phases=2 Linecode=1P_OH_AL_2/0_Rucina_0_416_0_2_2_2_2_2_2_2_2_2_2_2_2_2_2_2_2_2_2_2_2_2_2_2_2_2_2_2_2_2

New Line.l(r:p1rdm3125-p1rlv11987) Units=km Length=0.014382500000000001 bus1=p1rdm3125.1.2 bus2=p1rlv11987.1.2 switch=n enabled=y phases=2 Linecode=1P_OH_AL_2/0_Rucina_0_416_0_2_2_2_2_2_2_2_2_2_2_2_2_2_2_2_2_2_2_2_2_2_2_2_2_2_2_2_2_2

New Line.l(r:p1rdm3125-p1rdt1421lv) Units=km Length=0.019143300000000002 bus1=p1rdt1421lv.1.2 bus2=p1rdm3125.1.2 switch=n enabled=y phases=2 Linecode=1P_OH_AL_2/0_Rucina_0_416_0_2_0_2_2_2_2_2_2_2_2_2_2_2_2_2_2_2_2_2_2_2_2_2_2_2_2_2_2_2_2

New Line.l(r:p1rdm3127-p1rlv3243) Units=km Length=0.0150887 bus1=p1rdm3127.1.2 bus2=p1rlv3243.1.2 switch=n enabled=y phases=2 Linecode=1P_OH_AL_2/0_Rucina_0_416_0_2_2_2_2_2_2_2_2_2_2_2_2_2_2_2_2_2_2_2_2_2_2_2_2_2_2_2_2_2

New Line.l(r:p1rdm3127-p1rdt1421lv) Units=km Length=0.019143300000000002 bus1=p1rdt1421lv.1.2 bus2=p1rdm3127.1.2 switch=n enabled=y phases=2 Linecode=1P_OH_AL_2/0_Rucina_0_416_0_2_2_2_2_2_2_2_2_2_2_2_2_2_2_2_2_2_2_2_2_2_2_2_2_2_2_2_2_2

New Line.l(r:p1rdt1422lv-p1rlv1526) Units=km Length=0.013963800000000002 bus1=p1rdt1422lv.1.2 bus2=p1rlv1526.1.2 switch=n enabled=y phases=2 Linecode=1P_OH_AL_2/0_Rucina_0_416_0_2_2_2_2_2_2_2_2_2_2_2_2_2_2_2_2_2_2_2_2_2_2_2_2_2_2_2_2_2

New Line.l(r:p1rdt1422lv-p1rlv5033) Units=km Length=0.0145448 bus1=p1rdt1422lv.1.2 bus2=p1rlv5033.1.2 switch=n enabled=y phases=2 Linecode=1P_OH_AL_2/0_Rucina_0_416_0_2_2_2_2_2_2_2_2_2_2_2_2_2_2_2_2_2_2_2_2_2_2_2_2_2_2_2_2_2

New Line.l(r:p1rdt1422lv-p1rlv10309) Units=km Length=0.0147011 bus1=p1rdt1422lv.1.2 bus2=p1rlv10309.1.2 switch=n enabled=y phases=2 Linecode=1P_OH_AL_2/0_Rucina_0_416_0_2_2_2_2_2_2_2_2_2_2_2_2_2_2_2_2_2_2_2_2_2_2_2_2_2_2_2_2_2

New Line.l(r:p1rdm3133-p1rlv5549) Units=km Length=0.0142985 bus1=p1rdm3133.1.2 bus2=p1rlv5549.1.2 switch=n enabled=y phases=2 Linecode=1P_OH_AL_2/0_Rucina_0_416_0_2_2_2_2_2_2_2_2_2_2_2_2_2_2_2_2_2_2_2_2_2_2_2_2_2_2_2_2_2

New Line.l(r:p1rdm3133-p1rdt1422lv) Units=km Length=0.0187718 bus1=p1rdt1422lv.1.2 bus2=p1rdm3133.1.2 switch=n enabled=y phases=2 Linecode=1P_OH_AL_2/0_Rucina_0_416_0_2_2_2_2_2_2_2_2_2_2_2_2_2_2_2_2_2_2_2_2_2_2_2_2_2_2_2_2_2

New Line.l(r:p1rdt1426lv-p1rlv1530) Units=km Length=0.0022408 bus1=p1rdt1426lv.1.2 bus2=p1rlv1530.1.2 switch=n enabled=y phases=2 Linecode=1P_OH_AL_4_Periwinkle_0_416_0_2_2_2_2_2_2_2_2_2_2_2_2_2_2_2_2_2_2_2_2_2_2_2_2_2_2_2_2_2

New Line.l(r:p1rdm3342-p1rlv11003) Units=km Length=0.013276100000000002 bus1=p1rdm3342.1.2 bus2=p1rlv11003.1.2 switch=n enabled=y phases=2 Linecode=1P_OH_AL_2/0_Rucina_0_416_0_2_2_2_2_2_2_2_2_2_2_2_2_2_2_2_2_2_2_2_2_2_2_2_2_2_2_2_2_2

New Line.l(r:p1rdm3340-p1rlv1647) Units=km Length=0.0133071 bus1=p1rdm3340.1.2 bus2=p1rlv1647.1.2 switch=n enabled=y phases=2 Linecode=1P_OH_AL_2/0_Rucina_0_416_0_2_2_2_2_2_2_2_2_2_2_2_2_2_2_2_2_2_2_2_2_2_2_2_2_2_2_2_2_2

New Line.l(r:p1rdm3340-p1rdm3342) Units=km Length=0.013874 bus1=p1rdm3342.1.2 bus2=p1rdm3340.1.2 switch=n enabled=y phases=2 Linecode=1P_OH_AL_2/0_Rucina_0_416_0_2_2_2_2_2_2_2_2_2_2_2_2_2_2_2_2_2_2_2_2_2_2_2_2_2_2_2_2_2

New Line.l(r:p1rdm3342-p1rdt1522lv) Units=km Length=0.0452152 bus1=p1rdt1522lv.1.2 bus2=p1rdm3342.1.2 switch=n enabled=y phases=2 Linecode=1P_OH_AL_4/0_Zuzara_0_416_0_2_2_2_2_2_2_2_2_2_2_2_2_2_2_2_2_2_2_2_2_2_2_2_2_2_2_2_2_2

New Line.l(r:p1rdm3343-p1rlv11413) Units=km Length=0.0154053 bus1=p1rdm3343.1.2 bus2=p1rlv11413.1.2 switch=n enabled=y phases=2 Linecode=1P_OH_AL_2/0_Rucina_0_416_0_2_2_2_2_2_2_2_2_2_2_2_2_2_2_2_2_2_2_2_2_2_2_2_2_2_2_2_2_2

New Line.l(r:p1rdm3341-p1rlv10450) Units=km Length=0.0156905 bus1=p1rdm3341.1.2 bus2=p1rlv10450.1.2 switch=n enabled=y phases=2 Linecode=1P_OH_AL_2/0_Rucina_0_416_0_2_2_2_2_2_2_2_2_2_2_2_2_2_2_2_2_2_2_2_2_2_2_2_2_2_2_2_2_2

New Line.l(r:p1rdm3341-p1rdm3343) Units=km Length=0.0172433 bus1=p1rdm3343.1.2 bus2=p1rdm3341.1.2 switch=n enabled=y phases=2 Linecode=1P_OH_AL_2/0_Rucina_0_416_0_2_2_2_2_2_2_2_2_2_2_2_2_2_2_2_2_2_2_2_2_2_2_2_2_2_2_2_2_2

New Line.l(r:p1rdm3343-p1rdt1522lv) Units=km Length=0.0061606 bus1=p1rdt1522lv.1.2 bus2=p1rdm3343.1.2 switch=n enabled=y phases=2 Linecode=1P_OH_AL_2/0_Rucina_0_416_0_2_2_2_2_2_2_2_2_2_2_2_2_2_2_2_2_2_2_2_2_2_2_2_2_2_2_2_2_2

New Line.l(r:p1rdt1528lv-p1rlv1656) Units=km Length=0.020981800000000002 bus1=p1rdt1528lv.1.2 bus2=p1rlv1656.1.2 switch=n enabled=y phases=2 Linecode=1P_OH_AL_2/0_Rucina_0_416_0_2_2_2_2_2_2_2_2_2_2_2_2_2_2_2_2_2_2_2_2_2_2_2_2_2_2_2_2_2

New Line.l(r:p1rdt1528lv-p1rlv4774) Units=km Length=0.020981800000000002 bus1=p1rdt1528lv.1.2 bus2=p1rlv4774.1.2 switch=n enabled=y phases=2 Linecode=1P_OH_AL_2/0_Rucina_0_416_0_2_2_2_2_2_2_2_2_2_2_2_2_2_2_2_2_2_2_2_2_2_2_2_2_2_2_2_2_2

New Line.l(r:p1rdt1631lv-p1rlv1778) Units=km Length=0.014262200000000001 bus1=p1rdt1631lv.1.2 bus2=p1rlv1778.1.2 switch=n enabled=y phases=2 Linecode=1P_OH_AL_2/0_Rucina_0_416_0_2_2_2_2_2_2_2_2_2_2_2_2_2_2_2_2_2_2_2_2_2_2_2_2_2_2_2_2_2

New Line.l(r:p1rdt1744lv-p1rlv1912) Units=km Length=0.0145567 bus1=p1rdt1744lv.1.2 bus2=p1rlv1912.1.2 switch=n enabled=y phases=2 Linecode=1P_OH_AL_2/0_Rucina_0_416_0_2_2_2_2_2_2_2_2_2_2_2_2_2_2_2_2_2_2_2_2_2_2_2_2_2_2_2_2_2

New Line.l(r:p1rdt1745lv-p1rlv1913) Units=km Length=0.020573 bus1=p1rdt1745lv.1.2 bus2=p1rlv1913.1.2 switch=n enabled=y phases=2 Linecode=1P_OH_AL_2/0_Rucina_0_416_0_2_2_2_2_2_2_2_2_2_2_2_2_2_2_2_2_2_2_2_2_2_2_2_2_2_2_2_2_2

New Line.l(r:p1rdt1745lv-p1rlv6456) Units=km Length=0.0199425 bus1=p1rdt1745lv.1.2 bus2=p1rlv6456.1.2 switch=n enabled=y phases=2 Linecode=1P_OH_AL_2/0_Rucina_0_416_0_2_2_2_2_2_2_2_2_2_2_2_2_2_2_2_2_2_2_2_2_2_2_2_2_2_2_2_2_2

New Line.l(r:p1rdt1746lv-p1rlv1914) Units=km Length=0.013441 bus1=p1rdt1746lv.1.2 bus2=p1rlv1914.1.2 switch=n enabled=y phases=2 Linecode=1P_OH_AL_2/0_Rucina_0_416_0_2_2_2_2_2_2_2_2_2_2_2_2_2_2_2_2_2_2_2_2_2_2_2_2_2_2_2_2_2

New Line.l(r:p1rdt1748lv-p1rlv1918) Units=km Length=0.0604715 bus1=p1rdt1748lv.1.2 bus2=p1rlv1918.1.2 switch=n enabled=y phases=2 Linecode=1P_OH_AL_4/0_Zuzara_0_416_0_2_2_2_2_2_2_2_2_2_2_2_2_2_2_2_2_2_2_2_2_2_2_2_2_2_2_2_2_2

New Line.l(r:p1rdt1749lv-p1rlv1919) Units=km Length=0.0057862700000000005 bus1=p1rdt1749lv.1.2 bus2=p1rlv1919.1.2 switch=n enabled=y phases=2 Linecode=1P_OH_AL_2/0_Rucina_0_416_0_2_2_2_2_2_2_2_2_2_2_2_2_2_2_2_2_2_2_2_2_2_2_2_2_2_2_2_2_2

New Line.l(r:p1rdt1856lv-p1rlv3665) Units=km Length=0.0136433 bus1=p1rdt1856lv.1.2 bus2=p1rlv3665.1.2 switch=n enabled=y phases=2 Linecode=1P_OH_AL_2/0_Rucina_0_416_0_2_2_2_2_2_2_2_2_2_2_2_2_2_2_2_2_2_2_2_2_2_2_2_2_2_2_2_2_2

New Line.l(r:p1rdt1856lv-p1rlv6090) Units=km Length=0.0143064 bus1=p1rdt1856lv.1.2 bus2=p1rlv6090.1.2 switch=n enabled=y phases=2 Linecode=1P_OH_AL_2/0_Rucina_0_416_0_2_2_2_2_2_2_2_2_2_2_2_2_2_2_2_2_2_2_2_2_2_2_2_2_2_2_2_2_2

New Line.l(r:p1rdm4040-p1rlv2048) Units=km Length=0.0146559 bus1=p1rdm4040.1.2 bus2=p1rlv2048.1.2 switch=n enabled=y phases=2 Linecode=1P_OH_AL_2/0_Rucina_0_416_0_2_2_2_2_2_2_2_2_2_2_2_2_2_2_2_2_2_2_2_2_2_2_2_2_2_2_2_2_2
