New Load.load_p2ulv137 conn=wye bus1=p2ulv137.1.2 kV=0.2080002494301389 Vminpu=0.8 Vmaxpu=1.2 model=1 kW=6.29006 kvar=1.280538637790892 Phases=2

New Load.load_p2ulv138 conn=wye bus1=p2ulv138.1.2 kV=0.2080002494301389 Vminpu=0.8 Vmaxpu=1.2 model=1 kW=5.770060000000001 kvar=1.1686380972885935 Phases=2

New Load.load_p2ulv200 conn=wye bus1=p2ulv200.1.2 kV=0.2080002494301389 Vminpu=0.8 Vmaxpu=1.2 model=1 kW=3.22003 kvar=0.6504775958854341 Phases=2

New Load.load_p2ulv201 conn=wye bus1=p2ulv201.1.2 kV=0.2080002494301389 Vminpu=0.8 Vmaxpu=1.2 model=1 kW=4.58005 kvar=0.9300188186367714 Phases=2

New Load.load_p2ulv202 conn=wye bus1=p2ulv202.1.2 kV=0.2080002494301389 Vminpu=0.8 Vmaxpu=1.2 model=1 kW=2.88003 kvar=0.5893205887930111 Phases=2

New Load.load_p2ulv203 conn=wye bus1=p2ulv203.1.2 kV=0.2080002494301389 Vminpu=0.8 Vmaxpu=1.2 model=1 kW=5.35005 kvar=1.0891701731164982 Phases=2

New Load.load_p2ulv391 conn=wye bus1=p2ulv391.1.2 kV=0.2080002494301389 Vminpu=0.8 Vmaxpu=1.2 model=1 kW=5.54006 kvar=1.1307416199202263 Phases=2

New Load.load_p2ulv441 conn=wye bus1=p2ulv441.1.2 kV=0.2080002494301389 Vminpu=0.8 Vmaxpu=1.2 model=1 kW=7.60008 kvar=1.5392808793047372 Phases=2

New Load.load_p2ulv442 conn=wye bus1=p2ulv442.1.2 kV=0.2080002494301389 Vminpu=0.8 Vmaxpu=1.2 model=1 kW=4.85005 kvar=0.9797575997503596 Phases=2

New Load.load_p2ulv443 conn=wye bus1=p2ulv443.1.2 kV=0.2080002494301389 Vminpu=0.8 Vmaxpu=1.2 model=1 kW=4.85005 kvar=0.9899086641108747 Phases=2

New Load.load_p2ulv444 conn=wye bus1=p2ulv444.1.2 kV=0.2080002494301389 Vminpu=0.8 Vmaxpu=1.2 model=1 kW=5.80006 kvar=1.1807837972142463 Phases=2

New Load.load_p2ulv620 conn=wye bus1=p2ulv620.1.2 kV=0.2080002494301389 Vminpu=0.8 Vmaxpu=1.2 model=1 kW=5.850060000000001 kvar=1.19096286257921 Phases=2

New Load.load_p2ulv621 conn=wye bus1=p2ulv621.1.2 kV=0.2080002494301389 Vminpu=0.8 Vmaxpu=1.2 model=1 kW=6.38006 kvar=1.298860955447827 Phases=2

New Load.load_p2ulv677 conn=wye bus1=p2ulv677.1.2 kV=0.2080002494301389 Vminpu=0.8 Vmaxpu=1.2 model=1 kW=5.12005 kvar=1.0396704953791336 Phases=2

New Load.load_p2ulv678 conn=wye bus1=p2ulv678.1.2 kV=0.2080002494301389 Vminpu=0.8 Vmaxpu=1.2 model=1 kW=5.090050000000001 kvar=1.0309123903570856 Phases=2

New Load.load_p2ulv679 conn=wye bus1=p2ulv679.1.2 kV=0.2080002494301389 Vminpu=0.8 Vmaxpu=1.2 model=1 kW=3.84004 kvar=0.7797533791810017 Phases=2

New Load.load_p2ulv846 conn=wye bus1=p2ulv846.1.2 kV=0.2080002494301389 Vminpu=0.8 Vmaxpu=1.2 model=1 kW=5.80006 kvar=1.1807837972142463 Phases=2

New Load.load_p2ulv918 conn=wye bus1=p2ulv918.1.2 kV=0.2080002494301389 Vminpu=0.8 Vmaxpu=1.2 model=1 kW=3.36003 kvar=0.6805230909267135 Phases=2

New Load.load_p2ulv1167 conn=wye bus1=p2ulv1167.1.2 kV=0.2080002494301389 Vminpu=0.8 Vmaxpu=1.2 model=1 kW=4.90005 kvar=1.0001138028631646 Phases=2

New Load.load_p2ulv1168 conn=wye bus1=p2ulv1168.1.2 kV=0.2080002494301389 Vminpu=0.8 Vmaxpu=1.2 model=1 kW=5.170050000000001 kvar=1.0498234284108339 Phases=2

New Load.load_p2ulv1170 conn=wye bus1=p2ulv1170.1.2 kV=0.2080002494301389 Vminpu=0.8 Vmaxpu=1.2 model=1 kW=9.5801 kvar=1.950329282057806 Phases=2

New Load.load_p2ulv1350 conn=wye bus1=p2ulv1350.1.2 kV=0.2080002494301389 Vminpu=0.8 Vmaxpu=1.2 model=1 kW=5.31005 kvar=1.0810269208245273 Phases=2

New Load.load_p2ulv1420 conn=wye bus1=p2ulv1420.1.2 kV=0.2080002494301389 Vminpu=0.8 Vmaxpu=1.2 model=1 kW=9.01009 kvar=1.8295768075918357 Phases=2

New Load.load_p2ulv1421 conn=wye bus1=p2ulv1421.1.2 kV=0.2080002494301389 Vminpu=0.8 Vmaxpu=1.2 model=1 kW=6.390060000000001 kvar=2.1003111531392467 Phases=2

New Load.load_p2ulv1422 conn=wye bus1=p2ulv1422.1.2 kV=0.2080002494301389 Vminpu=0.8 Vmaxpu=1.2 model=1 kW=5.39005 kvar=1.088842888327837 Phases=2

New Load.load_p2ulv1423 conn=wye bus1=p2ulv1423.1.2 kV=0.2080002494301389 Vminpu=0.8 Vmaxpu=1.2 model=1 kW=5.21005 kvar=1.0606687900945995 Phases=2

New Load.load_p2ulv1606 conn=wye bus1=p2ulv1606.1.2 kV=0.2080002494301389 Vminpu=0.8 Vmaxpu=1.2 model=1 kW=5.33005 kvar=1.0795207485629381 Phases=2

New Load.load_p2ulv1646 conn=wye bus1=p2ulv1646.1.2 kV=0.2080002494301389 Vminpu=0.8 Vmaxpu=1.2 model=1 kW=12.5701 kvar=2.552467670035498 Phases=2

New Load.load_p2ulv1647 conn=wye bus1=p2ulv1647.1.2 kV=0.2080002494301389 Vminpu=0.8 Vmaxpu=1.2 model=1 kW=9.510100000000001 kvar=1.9311081684954443 Phases=2

New Load.load_p2ulv1895 conn=wye bus1=p2ulv1895.1.2 kV=0.2080002494301389 Vminpu=0.8 Vmaxpu=1.2 model=1 kW=9.26009 kvar=1.880341472750337 Phases=2

New Load.load_p2ulv1896 conn=wye bus1=p2ulv1896.1.2.3 kV=0.48 Vminpu=0.8 Vmaxpu=1.2 model=1 kW=23.6402 kvar=7.7701579832493595 Phases=3

New Load.load_p2ulv2114 conn=wye bus1=p2ulv2114.1.2.3 kV=0.48 Vminpu=0.8 Vmaxpu=1.2 model=1 kW=35.73040000000001 kvar=11.744014551682854 Phases=3

New Load.load_p2ulv2115 conn=wye bus1=p2ulv2115.1.2 kV=0.2080002494301389 Vminpu=0.8 Vmaxpu=1.2 model=1 kW=5.24005 kvar=1.0612926142357433 Phases=2

New Load.load_p2ulv2116 conn=wye bus1=p2ulv2116.1.2 kV=0.2080002494301389 Vminpu=0.8 Vmaxpu=1.2 model=1 kW=1.17001 kvar=0.24001843710200912 Phases=2

New Load.load_p2ulv2117 conn=wye bus1=p2ulv2117.1.2 kV=0.2080002494301389 Vminpu=0.8 Vmaxpu=1.2 model=1 kW=2.02002 kvar=0.4101825556539014 Phases=2

New Load.load_p2ulv2118 conn=wye bus1=p2ulv2118.1.2 kV=0.2080002494301389 Vminpu=0.8 Vmaxpu=1.2 model=1 kW=4.74005 kvar=0.9600252013068835 Phases=2

New Load.load_p2ulv2314 conn=wye bus1=p2ulv2314.1.2 kV=0.2080002494301389 Vminpu=0.8 Vmaxpu=1.2 model=1 kW=4.89005 kvar=0.9904054251855413 Phases=2

New Load.load_p2ulv2379 conn=wye bus1=p2ulv2379.1.2 kV=0.2080002494301389 Vminpu=0.8 Vmaxpu=1.2 model=1 kW=14.4701 kvar=2.938279125240106 Phases=2

New Load.load_p2ulv2633 conn=wye bus1=p2ulv2633.1.2 kV=0.2080002494301389 Vminpu=0.8 Vmaxpu=1.2 model=1 kW=1.48001 kvar=0.2997535676176835 Phases=2

New Load.load_p2ulv2888 conn=wye bus1=p2ulv2888.1.2 kV=0.2080002494301389 Vminpu=0.8 Vmaxpu=1.2 model=1 kW=3.56004 kvar=0.7191629458284491 Phases=2

New Load.load_p2ulv2889 conn=wye bus1=p2ulv2889.1.2 kV=0.2080002494301389 Vminpu=0.8 Vmaxpu=1.2 model=1 kW=1.17001 kvar=0.3799772418482078 Phases=2

New Load.load_p2ulv3128 conn=wye bus1=p2ulv3128.1.2 kV=0.2080002494301389 Vminpu=0.8 Vmaxpu=1.2 model=1 kW=7.85008 kvar=1.5899145857691672 Phases=2

New Load.load_p2ulv3130 conn=wye bus1=p2ulv3130.1.2 kV=0.2080002494301389 Vminpu=0.8 Vmaxpu=1.2 model=1 kW=3.76004 kvar=0.7595649045608481 Phases=2

New Load.load_p2ulv3131 conn=wye bus1=p2ulv3131.1.2 kV=0.2080002494301389 Vminpu=0.8 Vmaxpu=1.2 model=1 kW=4.81005 kvar=0.9792362671748885 Phases=2

New Load.load_p2ulv3527 conn=wye bus1=p2ulv3527.1.2 kV=0.2080002494301389 Vminpu=0.8 Vmaxpu=1.2 model=1 kW=6.43006 kvar=1.2989350938342485 Phases=2

New Load.load_p2ulv3586 conn=wye bus1=p2ulv3586.1.2 kV=0.2080002494301389 Vminpu=0.8 Vmaxpu=1.2 model=1 kW=3.40003 kvar=0.6904055379154336 Phases=2

New Load.load_p2ulv3832 conn=wye bus1=p2ulv3832.1.2.3 kV=0.48 Vminpu=0.8 Vmaxpu=1.2 model=1 kW=255.06300000000002 kvar=51.79275115729103 Phases=3

New Load.load_p2ulv4014 conn=wye bus1=p2ulv4014.1.2 kV=0.2080002494301389 Vminpu=0.8 Vmaxpu=1.2 model=1 kW=5.06005 kvar=1.030131593999708 Phases=2

New Load.load_p2ulv4015 conn=wye bus1=p2ulv4015.1.2 kV=0.2080002494301389 Vminpu=0.8 Vmaxpu=1.2 model=1 kW=6.17006 kvar=1.249652027631681 Phases=2

New Load.load_p2ulv4083 conn=wye bus1=p2ulv4083.1.2 kV=0.2080002494301389 Vminpu=0.8 Vmaxpu=1.2 model=1 kW=9.34009 kvar=1.9014677324929066 Phases=2

New Load.load_p2ulv4571 conn=wye bus1=p2ulv4571.1.2.3 kV=0.48 Vminpu=0.8 Vmaxpu=1.2 model=1 kW=58.790600000000005 kvar=19.32353575392847 Phases=3

New Load.load_p2ulv4572 conn=wye bus1=p2ulv4572.1.2 kV=0.2080002494301389 Vminpu=0.8 Vmaxpu=1.2 model=1 kW=5.54006 kvar=1.1307416199202263 Phases=2

New Load.load_p2ulv4573 conn=wye bus1=p2ulv4573.1.2 kV=0.2080002494301389 Vminpu=0.8 Vmaxpu=1.2 model=1 kW=4.98005 kvar=1.011242282890373 Phases=2

New Load.load_p2ulv4822 conn=wye bus1=p2ulv4822.1.2 kV=0.2080002494301389 Vminpu=0.8 Vmaxpu=1.2 model=1 kW=5.31005 kvar=1.0810269208245273 Phases=2

New Load.load_p2ulv5003 conn=wye bus1=p2ulv5003.1.2 kV=0.2080002494301389 Vminpu=0.8 Vmaxpu=1.2 model=1 kW=5.43005 kvar=1.0997742311487098 Phases=2

New Load.load_p2ulv5282 conn=wye bus1=p2ulv5282.1.2 kV=0.2080002494301389 Vminpu=0.8 Vmaxpu=1.2 model=1 kW=6.40006 kvar=1.2995876115772655 Phases=2

New Load.load_p2ulv5283 conn=wye bus1=p2ulv5283.1.2 kV=0.2080002494301389 Vminpu=0.8 Vmaxpu=1.2 model=1 kW=5.73006 kvar=1.1605367042542845 Phases=2

New Load.load_p2ulv5289 conn=wye bus1=p2ulv5289.1.2.3 kV=0.48 Vminpu=0.8 Vmaxpu=1.2 model=1 kW=56.10059999999999 kvar=11.39171269676402 Phases=3

New Load.load_p2ulv5468 conn=wye bus1=p2ulv5468.1.2 kV=0.2080002494301389 Vminpu=0.8 Vmaxpu=1.2 model=1 kW=5.75006 kvar=1.1706047318492825 Phases=2

New Load.load_p2ulv5527 conn=wye bus1=p2ulv5527.1.2 kV=0.2080002494301389 Vminpu=0.8 Vmaxpu=1.2 model=1 kW=10.0801 kvar=2.0521199357074447 Phases=2

New Load.load_p2ulv5945 conn=wye bus1=p2ulv1350.1.2 kV=0.2080002494301389 Vminpu=0.8 Vmaxpu=1.2 model=1 kW=5.84006 kvar=1.1889270495062174 Phases=2

New Load.load_p2ulv6005 conn=wye bus1=p2ulv6005.1.2 kV=0.2080002494301389 Vminpu=0.8 Vmaxpu=1.2 model=1 kW=5.19005 kvar=1.0511658729428572 Phases=2

New Load.load_p2ulv6200 conn=wye bus1=p2ulv6200.1.2 kV=0.2080002494301389 Vminpu=0.8 Vmaxpu=1.2 model=1 kW=5.73006 kvar=1.1605367042542845 Phases=2

New Load.load_p2ulv6271 conn=wye bus1=p2ulv6271.1.2.3 kV=0.48 Vminpu=0.8 Vmaxpu=1.2 model=1 kW=52.9305 kvar=10.747996436688164 Phases=3

New Load.load_p2ulv6508 conn=wye bus1=p2ulv6508.1.2 kV=0.2080002494301389 Vminpu=0.8 Vmaxpu=1.2 model=1 kW=12.3201 kvar=2.5017030048769966 Phases=2

New Load.load_p2ulv6683 conn=wye bus1=p2ulv6683.1.2 kV=0.2080002494301389 Vminpu=0.8 Vmaxpu=1.2 model=1 kW=6.23006 kvar=1.2585331351018492 Phases=2

New Load.load_p2ulv6737 conn=wye bus1=p2ulv6737.1.2 kV=0.2080002494301389 Vminpu=0.8 Vmaxpu=1.2 model=1 kW=3.78004 kvar=0.7695454848435601 Phases=2

New Load.load_p2ulv6739 conn=wye bus1=p2ulv6739.1.2 kV=0.2080002494301389 Vminpu=0.8 Vmaxpu=1.2 model=1 kW=5.33005 kvar=1.0795207485629381 Phases=2

New Load.load_p2ulv6904 conn=wye bus1=p2ulv6904.1.2 kV=0.2080002494301389 Vminpu=0.8 Vmaxpu=1.2 model=1 kW=5.640060000000001 kvar=1.151151897424806 Phases=2

New Load.load_p2ulv6905 conn=wye bus1=p2ulv6905.1.2 kV=0.2080002494301389 Vminpu=0.8 Vmaxpu=1.2 model=1 kW=5.59006 kvar=1.1409467586725162 Phases=2

New Load.load_p2ulv7164 conn=wye bus1=p2ulv7164.1.2 kV=0.2080002494301389 Vminpu=0.8 Vmaxpu=1.2 model=1 kW=5.640060000000001 kvar=1.151151897424806 Phases=2

New Load.load_p2ulv7165 conn=wye bus1=p2ulv7165.1.2 kV=0.2080002494301389 Vminpu=0.8 Vmaxpu=1.2 model=1 kW=5.25005 kvar=1.0688120423865706 Phases=2

New Load.load_p2ulv7166 conn=wye bus1=p2ulv7166.1.2 kV=0.2080002494301389 Vminpu=0.8 Vmaxpu=1.2 model=1 kW=5.54006 kvar=1.1307416199202263 Phases=2

New Load.load_p2ulv7167 conn=wye bus1=p2ulv7167.1.2 kV=0.2080002494301389 Vminpu=0.8 Vmaxpu=1.2 model=1 kW=6.07006 kvar=1.2293985450459088 Phases=2

New Load.load_p2ulv7231 conn=wye bus1=p2ulv7231.1.2.3 kV=0.48 Vminpu=0.8 Vmaxpu=1.2 model=1 kW=97.341 kvar=19.76593308477461 Phases=3

New Load.load_p2ulv7232 conn=wye bus1=p2ulv7232.1.2 kV=0.2080002494301389 Vminpu=0.8 Vmaxpu=1.2 model=1 kW=4.05004 kvar=0.8202741461167985 Phases=2

New Load.load_p2ulv7233 conn=wye bus1=p2ulv7233.1.2 kV=0.2080002494301389 Vminpu=0.8 Vmaxpu=1.2 model=1 kW=5.26005 kvar=1.070847855459563 Phases=2

New Load.load_p2ulv7234 conn=wye bus1=p2ulv7234.1.2 kV=0.2080002494301389 Vminpu=0.8 Vmaxpu=1.2 model=1 kW=3.82004 kvar=0.7796807647859518 Phases=2

New Load.load_p2ulv7405 conn=wye bus1=p2ulv7405.1.2 kV=0.2080002494301389 Vminpu=0.8 Vmaxpu=1.2 model=1 kW=6.01006 kvar=1.2203947339300039 Phases=2

New Load.load_p2ulv7406 conn=wye bus1=p2ulv7406.1.2 kV=0.2080002494301389 Vminpu=0.8 Vmaxpu=1.2 model=1 kW=5.16005 kvar=1.0504897247296356 Phases=2

New Load.load_p2ulv7460 conn=wye bus1=p2ulv7460.1.2 kV=0.2080002494301389 Vminpu=0.8 Vmaxpu=1.2 model=1 kW=5.54006 kvar=1.1307416199202263 Phases=2

New Load.load_p2ulv7462 conn=wye bus1=p2ulv7462.1.2.3 kV=0.48 Vminpu=0.8 Vmaxpu=1.2 model=1 kW=47.4805 kvar=9.641326736232841 Phases=3

New Load.load_p2ulv7463 conn=wye bus1=p2ulv7463.1.2 kV=0.2080002494301389 Vminpu=0.8 Vmaxpu=1.2 model=1 kW=4.10004 kvar=0.8304008874096844 Phases=2

New Load.load_p2ulv7710 conn=wye bus1=p2ulv7710.1.2.3 kV=0.48 Vminpu=0.8 Vmaxpu=1.2 model=1 kW=23.370200000000004 kvar=4.745521510748808 Phases=3

New Load.load_p2ulv7711 conn=wye bus1=p2ulv7711.1.2.3 kV=0.48 Vminpu=0.8 Vmaxpu=1.2 model=1 kW=237.33199999999997 kvar=48.19231804558951 Phases=3

New Load.load_p2ulv7712 conn=wye bus1=p2ulv7712.1.2 kV=0.2080002494301389 Vminpu=0.8 Vmaxpu=1.2 model=1 kW=12.1501 kvar=3.989231578524149 Phases=2

New Load.load_p2ulv7713 conn=wye bus1=p2ulv7713.1.2 kV=0.2080002494301389 Vminpu=0.8 Vmaxpu=1.2 model=1 kW=7.26007 kvar=1.4704170131648537 Phases=2

New Load.load_p2ulv7965 conn=wye bus1=p2ulv7965.1.2 kV=0.2080002494301389 Vminpu=0.8 Vmaxpu=1.2 model=1 kW=2.06002 kvar=0.6800154142126806 Phases=2

New Load.load_p2ulv8187 conn=wye bus1=p2ulv8187.1.2 kV=0.2080002494301389 Vminpu=0.8 Vmaxpu=1.2 model=1 kW=4.76005 kvar=0.9690572018099246 Phases=2

New Load.load_p2ulv8374 conn=wye bus1=p2ulv8374.1.2 kV=0.2080002494301389 Vminpu=0.8 Vmaxpu=1.2 model=1 kW=5.94006 kvar=1.2092851802361448 Phases=2

New Load.load_p2ulv8423 conn=wye bus1=p2ulv8423.1.2 kV=0.2080002494301389 Vminpu=0.8 Vmaxpu=1.2 model=1 kW=3.0300300000000004 kvar=0.6200140497357622 Phases=2

New Load.load_p2ulv8586 conn=wye bus1=p2ulv8586.1.2 kV=0.2080002494301389 Vminpu=0.8 Vmaxpu=1.2 model=1 kW=5.49005 kvar=1.1090438676940364 Phases=2

New Load.load_p2ulv8840 conn=wye bus1=p2ulv8840.1.2.3 kV=0.48 Vminpu=0.8 Vmaxpu=1.2 model=1 kW=270.713 kvar=88.97906016528559 Phases=3

New Load.load_p2ulv8841 conn=wye bus1=p2ulv8841.1.2.3 kV=0.48 Vminpu=0.8 Vmaxpu=1.2 model=1 kW=161.40200000000002 kvar=53.05027194407888 Phases=3

New Load.load_p2ulv8842 conn=wye bus1=p2ulv8842.1.2 kV=0.2080002494301389 Vminpu=0.8 Vmaxpu=1.2 model=1 kW=4.03004 kvar=0.8204408116683792 Phases=2

New Load.load_p2ulv9088 conn=wye bus1=p2ulv9088.1.2 kV=0.2080002494301389 Vminpu=0.8 Vmaxpu=1.2 model=1 kW=11.3801 kvar=2.3108278638810327 Phases=2

New Load.load_p2ulv9276 conn=wye bus1=p2ulv9276.1.2 kV=0.2080002494301389 Vminpu=0.8 Vmaxpu=1.2 model=1 kW=4.93005 kvar=1.0010893498586726 Phases=2

New Load.load_p2ulv9334 conn=wye bus1=p2ulv9334.1.2.3 kV=0.48 Vminpu=0.8 Vmaxpu=1.2 model=1 kW=152.18200000000002 kvar=30.901873092604042 Phases=3

New Load.load_p2ulv9550 conn=wye bus1=p2ulv9550.1.2.3 kV=0.48 Vminpu=0.8 Vmaxpu=1.2 model=1 kW=363.544 kvar=73.82075772152845 Phases=3

New Load.load_p2ulv9715 conn=wye bus1=p2ulv9715.1.2 kV=0.2080002494301389 Vminpu=0.8 Vmaxpu=1.2 model=1 kW=5.84006 kvar=1.1889270495062174 Phases=2

New Load.load_p2ulv9777 conn=wye bus1=p2ulv9777.1.2 kV=0.2080002494301389 Vminpu=0.8 Vmaxpu=1.2 model=1 kW=4.880050000000001 kvar=0.9909364168269728 Phases=2

New Load.load_p2ulv9778 conn=wye bus1=p2ulv9778.1.2 kV=0.2080002494301389 Vminpu=0.8 Vmaxpu=1.2 model=1 kW=9.15009 kvar=1.8580050200805964 Phases=2

New Load.load_p2ulv9779 conn=wye bus1=p2ulv9779.1.2 kV=0.2080002494301389 Vminpu=0.8 Vmaxpu=1.2 model=1 kW=5.090050000000001 kvar=1.0309123903570856 Phases=2

New Load.load_p2ulv10020 conn=wye bus1=p2ulv10020.1.2 kV=0.2080002494301389 Vminpu=0.8 Vmaxpu=1.2 model=1 kW=6.13006 kvar=1.2415506345973724 Phases=2

New Load.load_p2ulv10021 conn=wye bus1=p2ulv10021.1.2 kV=0.2080002494301389 Vminpu=0.8 Vmaxpu=1.2 model=1 kW=12.6501 kvar=2.5687123628862176 Phases=2

New Load.load_p2ulv10255 conn=wye bus1=p2ulv10255.1.2 kV=0.2080002494301389 Vminpu=0.8 Vmaxpu=1.2 model=1 kW=4.08004 kvar=0.8306198770333432 Phases=2

New Load.load_p2ulv10986 conn=wye bus1=p2ulv10986.1.2 kV=0.2080002494301389 Vminpu=0.8 Vmaxpu=1.2 model=1 kW=18.4102 kvar=3.738350554004146 Phases=2

New Load.load_p2ulv11219 conn=wye bus1=p2ulv11219.1.2 kV=0.2080002494301389 Vminpu=0.8 Vmaxpu=1.2 model=1 kW=2.90003 kvar=0.5903918986071232 Phases=2

New Load.load_p2ulv11641 conn=wye bus1=p2ulv7164.1.2 kV=0.2080002494301389 Vminpu=0.8 Vmaxpu=1.2 model=1 kW=5.420050000000001 kvar=1.1005880935693348 Phases=2

New Load.load_p2ulv11880 conn=wye bus1=p2ulv11880.1.2 kV=0.2080002494301389 Vminpu=0.8 Vmaxpu=1.2 model=1 kW=6.12006 kvar=1.239525286338795 Phases=2

New Load.load_p2ulv11935 conn=wye bus1=p2ulv11935.1.2 kV=0.2080002494301389 Vminpu=0.8 Vmaxpu=1.2 model=1 kW=3.76004 kvar=0.7595649045608481 Phases=2

New Load.load_p2ulv12335 conn=wye bus1=p2ulv12335.1.2 kV=0.2080002494301389 Vminpu=0.8 Vmaxpu=1.2 model=1 kW=5.74006 kvar=1.1685689187762893 Phases=2

New Load.load_p2ulv12393 conn=wye bus1=p2ulv12393.1.2 kV=0.2080002494301389 Vminpu=0.8 Vmaxpu=1.2 model=1 kW=4.17004 kvar=0.8489421946902781 Phases=2

New Load.load_p2ulv12646 conn=wye bus1=p2ulv12646.1.2 kV=0.2080002494301389 Vminpu=0.8 Vmaxpu=1.2 model=1 kW=1.38001 kvar=0.28022298226153225 Phases=2

New Load.load_p2ulv12888 conn=wye bus1=p2ulv12888.1.2 kV=0.2080002494301389 Vminpu=0.8 Vmaxpu=1.2 model=1 kW=5.770060000000001 kvar=1.1686380972885935 Phases=2

New Load.load_p2ulv13061 conn=wye bus1=p2ulv13061.1.2 kV=0.2080002494301389 Vminpu=0.8 Vmaxpu=1.2 model=1 kW=5.80006 kvar=1.1807837972142463 Phases=2

New Load.load_p2ulv13062 conn=wye bus1=p2ulv13062.1.2 kV=0.2080002494301389 Vminpu=0.8 Vmaxpu=1.2 model=1 kW=5.86006 kvar=1.1899359348349032 Phases=2

New Load.load_p2ulv13113 conn=wye bus1=p2ulv13113.1.2 kV=0.2080002494301389 Vminpu=0.8 Vmaxpu=1.2 model=1 kW=5.83006 kvar=1.180790186840056 Phases=2

New Load.load_p2ulv13114 conn=wye bus1=p2ulv7232.1.2 kV=0.2080002494301389 Vminpu=0.8 Vmaxpu=1.2 model=1 kW=4.78005 kvar=0.9706305507635722 Phases=2

New Load.load_p2ulv13115 conn=wye bus1=p2ulv13115.1.2 kV=0.2080002494301389 Vminpu=0.8 Vmaxpu=1.2 model=1 kW=4.47004 kvar=0.9100165868800613 Phases=2

New Load.load_p2ulv13117 conn=wye bus1=p2ulv13117.1.2 kV=0.2080002494301389 Vminpu=0.8 Vmaxpu=1.2 model=1 kW=3.49003 kvar=1.149592406589048 Phases=2

New Load.load_p2ulv13301 conn=wye bus1=p2ulv13301.1.2 kV=0.2080002494301389 Vminpu=0.8 Vmaxpu=1.2 model=1 kW=5.10005 kvar=1.0409343578723245 Phases=2

New Load.load_p2ulv13362 conn=wye bus1=p2ulv13362.1.2 kV=0.2080002494301389 Vminpu=0.8 Vmaxpu=1.2 model=1 kW=17.8102 kvar=3.6165153576237423 Phases=2

New Load.load_p2ulv13820 conn=wye bus1=p2ulv13820.1.2 kV=0.2080002494301389 Vminpu=0.8 Vmaxpu=1.2 model=1 kW=18.1202 kvar=3.679463542420285 Phases=2

New Load.load_p2ulv13821 conn=wye bus1=p2ulv13821.1.2 kV=0.2080002494301389 Vminpu=0.8 Vmaxpu=1.2 model=1 kW=5.640060000000001 kvar=1.1393473568412724 Phases=2

New Load.load_p2ulv14027 conn=wye bus1=p2ulv14027.1.2 kV=0.2080002494301389 Vminpu=0.8 Vmaxpu=1.2 model=1 kW=5.55006 kvar=1.1298884703894267 Phases=2

New Load.load_p2ulv14029 conn=wye bus1=p2ulv14029.1.2 kV=0.2080002494301389 Vminpu=0.8 Vmaxpu=1.2 model=1 kW=4.30004 kvar=0.8709078525812284 Phases=2

New Load.load_p2ulv14030 conn=wye bus1=p2ulv14030.1.2 kV=0.2080002494301389 Vminpu=0.8 Vmaxpu=1.2 model=1 kW=3.62004 kvar=0.7293785270672118 Phases=2

New Load.load_p2ulv14031 conn=wye bus1=p2ulv14031.1.2 kV=0.2080002494301389 Vminpu=0.8 Vmaxpu=1.2 model=1 kW=15.3702 kvar=3.1210522256767725 Phases=2

New Load.load_p2ulv14032 conn=wye bus1=p2ulv14032.1.2 kV=0.2080002494301389 Vminpu=0.8 Vmaxpu=1.2 model=1 kW=2.74003 kvar=0.8996316246042024 Phases=2

New Load.load_p2ulv14196 conn=wye bus1=p2ulv14196.1.2 kV=0.2080002494301389 Vminpu=0.8 Vmaxpu=1.2 model=1 kW=6.23006 kvar=1.2585331351018492 Phases=2

New Load.load_p2ulv14239 conn=wye bus1=p2ulv14239.1.2 kV=0.2080002494301389 Vminpu=0.8 Vmaxpu=1.2 model=1 kW=8.870090000000001 kvar=1.8011485951030752 Phases=2

New Load.load_p2ulv14451 conn=wye bus1=p2ulv14451.1.2 kV=0.2080002494301389 Vminpu=0.8 Vmaxpu=1.2 model=1 kW=3.9400400000000007 kvar=0.8000592452444024 Phases=2

New Load.load_p2ulv14452 conn=wye bus1=p2ulv14452.1.2 kV=0.2080002494301389 Vminpu=0.8 Vmaxpu=1.2 model=1 kW=0.680007 kvar=0.13985037221791657 Phases=2

New Load.load_p2ulv14453 conn=wye bus1=p2ulv14453.1.2 kV=0.2080002494301389 Vminpu=0.8 Vmaxpu=1.2 model=1 kW=5.05005 kvar=1.0307292191200343 Phases=2

New Load.load_p2ulv14642 conn=wye bus1=p2ulv14642.1.2 kV=0.2080002494301389 Vminpu=0.8 Vmaxpu=1.2 model=1 kW=5.68006 kvar=1.1504099629613984 Phases=2

New Load.load_p2ulv14643 conn=wye bus1=p2ulv14643.1.2 kV=0.2080002494301389 Vminpu=0.8 Vmaxpu=1.2 model=1 kW=5.91006 kvar=1.200088867866603 Phases=2

New Load.load_p2ulv14698 conn=wye bus1=p2ulv14698.1.2 kV=0.2080002494301389 Vminpu=0.8 Vmaxpu=1.2 model=1 kW=3.67004 kvar=0.7394527047982206 Phases=2

New Load.load_p2ulv14701 conn=wye bus1=p2ulv14701.1.2 kV=0.2080002494301389 Vminpu=0.8 Vmaxpu=1.2 model=1 kW=5.420050000000001 kvar=1.1005880935693348 Phases=2

New Load.load_p2ulv14863 conn=wye bus1=p2ulv14863.1.2 kV=0.2080002494301389 Vminpu=0.8 Vmaxpu=1.2 model=1 kW=5.53006 kvar=1.1200297390827405 Phases=2

New Load.load_p2ulv14864 conn=wye bus1=p2ulv14864.1.2 kV=0.2080002494301389 Vminpu=0.8 Vmaxpu=1.2 model=1 kW=5.08005 kvar=1.0288870420985081 Phases=2

New Load.load_p2ulv14927 conn=wye bus1=p2ulv14927.1.2 kV=0.2080002494301389 Vminpu=0.8 Vmaxpu=1.2 model=1 kW=5.47005 kvar=1.110741026601035 Phases=2

New Load.load_p2ulv14928 conn=wye bus1=p2ulv14928.1.2 kV=0.2080002494301389 Vminpu=0.8 Vmaxpu=1.2 model=1 kW=8.43008 kvar=1.7118007538375068 Phases=2

New Load.load_p2ulv15102 conn=wye bus1=p2ulv15102.1.2 kV=0.2080002494301389 Vminpu=0.8 Vmaxpu=1.2 model=1 kW=5.82006 kvar=1.1787648385814788 Phases=2

New Load.load_p2ulv15154 conn=wye bus1=p2ulv15154.1.2 kV=0.2080002494301389 Vminpu=0.8 Vmaxpu=1.2 model=1 kW=5.49005 kvar=1.8005928493253465 Phases=2

New Load.load_p2ulv15339 conn=wye bus1=p2ulv15339.1.2 kV=0.2080002494301389 Vminpu=0.8 Vmaxpu=1.2 model=1 kW=5.99006 kvar=1.2194642456011087 Phases=2

New Load.load_p2ulv15340 conn=wye bus1=p2ulv12335.1.2 kV=0.2080002494301389 Vminpu=0.8 Vmaxpu=1.2 model=1 kW=5.25005 kvar=1.0688120423865706 Phases=2

New Load.load_p2ulv15387 conn=wye bus1=p2ulv15387.1.2.3 kV=0.48 Vminpu=0.8 Vmaxpu=1.2 model=1 kW=28.660299999999996 kvar=5.819722131368753 Phases=3

New Load.load_p2ulv15388 conn=wye bus1=p2ulv15388.1.2 kV=0.2080002494301389 Vminpu=0.8 Vmaxpu=1.2 model=1 kW=4.04004 kvar=0.8203651113078028 Phases=2

New Load.load_p2ulv15567 conn=wye bus1=p2ulv15567.1.2 kV=0.2080002494301389 Vminpu=0.8 Vmaxpu=1.2 model=1 kW=5.35005 kvar=1.0891701731164982 Phases=2

New Load.load_p2ulv15790 conn=wye bus1=p2ulv15790.1.2 kV=0.2080002494301389 Vminpu=0.8 Vmaxpu=1.2 model=1 kW=6.59007 kvar=1.341615065793748 Phases=2

New Load.load_p2ulv15843 conn=wye bus1=p2ulv15843.1.2 kV=0.2080002494301389 Vminpu=0.8 Vmaxpu=1.2 model=1 kW=5.16005 kvar=1.0504897247296356 Phases=2

New Load.load_p2ulv16074 conn=wye bus1=p2ulv16074.1.2 kV=0.2080002494301389 Vminpu=0.8 Vmaxpu=1.2 model=1 kW=10.6201 kvar=2.1620538416490547 Phases=2

New Load.load_p2ulv16076 conn=wye bus1=p2ulv16076.1.2 kV=0.2080002494301389 Vminpu=0.8 Vmaxpu=1.2 model=1 kW=4.11004 kvar=0.8410090147543001 Phases=2

New Load.load_p2ulv16078 conn=wye bus1=p2ulv16078.1.2 kV=0.2080002494301389 Vminpu=0.8 Vmaxpu=1.2 model=1 kW=4.920050000000001 kvar=0.9990587632523329 Phases=2

New Load.load_p2ulv16079 conn=wye bus1=p2ulv16079.1.2 kV=0.2080002494301389 Vminpu=0.8 Vmaxpu=1.2 model=1 kW=4.89005 kvar=0.9904054251855413 Phases=2

New Load.load_p2ulv16080 conn=wye bus1=p2ulv16080.1.2 kV=0.2080002494301389 Vminpu=0.8 Vmaxpu=1.2 model=1 kW=5.82006 kvar=1.1787648385814788 Phases=2

New Load.load_p2ulv16081 conn=wye bus1=p2ulv16081.1.2 kV=0.2080002494301389 Vminpu=0.8 Vmaxpu=1.2 model=1 kW=2.94003 kvar=0.6000682817178988 Phases=2

New Load.load_p2ulv16323 conn=wye bus1=p2ulv16323.1.2 kV=0.2080002494301389 Vminpu=0.8 Vmaxpu=1.2 model=1 kW=4.880050000000001 kvar=0.9909364168269728 Phases=2

New Load.load_p2ulv16324 conn=wye bus1=p2ulv16324.1.2.3 kV=0.48 Vminpu=0.8 Vmaxpu=1.2 model=1 kW=21.110200000000003 kvar=6.938587197146837 Phases=3

New Load.load_p2ulv16325 conn=wye bus1=p2ulv16325.1.2 kV=0.2080002494301389 Vminpu=0.8 Vmaxpu=1.2 model=1 kW=4.97005 kvar=1.009211696284033 Phases=2

New Load.load_p2ulv16543 conn=wye bus1=p2ulv16543.1.2 kV=0.2080002494301389 Vminpu=0.8 Vmaxpu=1.2 model=1 kW=4.13004 kvar=0.840798942398307 Phases=2

New Load.load_p2ulv16544 conn=wye bus1=p2ulv16544.1.2 kV=0.2080002494301389 Vminpu=0.8 Vmaxpu=1.2 model=1 kW=9.8201 kvar=1.9889122434053916 Phases=2

New Load.load_p2ulv16545 conn=wye bus1=p2ulv16545.1.2 kV=0.2080002494301389 Vminpu=0.8 Vmaxpu=1.2 model=1 kW=8.71009 kvar=1.768659209401634 Phases=2

New Load.load_p2ulv16725 conn=wye bus1=p2ulv16725.1.2 kV=0.2080002494301389 Vminpu=0.8 Vmaxpu=1.2 model=1 kW=5.67006 kvar=1.1513547893144422 Phases=2

New Load.load_p2ulv16786 conn=wye bus1=p2ulv2115.1.2 kV=0.2080002494301389 Vminpu=0.8 Vmaxpu=1.2 model=1 kW=3.25003 kvar=0.659946738820333 Phases=2

New Load.load_p2ulv16787 conn=wye bus1=p2ulv16787.1.2 kV=0.2080002494301389 Vminpu=0.8 Vmaxpu=1.2 model=1 kW=4.90005 kvar=1.0001138028631646 Phases=2

New Load.load_p2ulv16788 conn=wye bus1=p2ulv16788.1.2 kV=0.2080002494301389 Vminpu=0.8 Vmaxpu=1.2 model=1 kW=5.29005 kvar=1.0686419089616372 Phases=2

New Load.load_p2ulv16978 conn=wye bus1=p2ulv16978.1.2 kV=0.2080002494301389 Vminpu=0.8 Vmaxpu=1.2 model=1 kW=5.78006 kvar=1.1706634455471703 Phases=2

New Load.load_p2ulv17239 conn=wye bus1=p2ulv17239.1.2 kV=0.2080002494301389 Vminpu=0.8 Vmaxpu=1.2 model=1 kW=5.96006 kvar=1.2102418008983036 Phases=2

New Load.load_p2ulv17693 conn=wye bus1=p2ulv17693.1.2 kV=0.2080002494301389 Vminpu=0.8 Vmaxpu=1.2 model=1 kW=2.86003 kvar=0.9400464013347041 Phases=2

New Load.load_p2ulv17694 conn=wye bus1=p2ulv17694.1.2 kV=0.2080002494301389 Vminpu=0.8 Vmaxpu=1.2 model=1 kW=1.38001 kvar=0.28022298226153225 Phases=2

New Load.load_p2ulv18079 conn=wye bus1=p2ulv18079.1.2 kV=0.2080002494301389 Vminpu=0.8 Vmaxpu=1.2 model=1 kW=5.84006 kvar=1.1889270495062174 Phases=2

New Load.load_p2ulv18081 conn=wye bus1=p2ulv18081.1.2 kV=0.2080002494301389 Vminpu=0.8 Vmaxpu=1.2 model=1 kW=5.80006 kvar=1.1807837972142463 Phases=2

New Load.load_p2ulv18370 conn=wye bus1=p2ulv18370.1.2 kV=0.2080002494301389 Vminpu=0.8 Vmaxpu=1.2 model=1 kW=5.74006 kvar=1.1685689187762893 Phases=2

New Load.load_p2ulv18525 conn=wye bus1=p2ulv18525.1.2 kV=0.2080002494301389 Vminpu=0.8 Vmaxpu=1.2 model=1 kW=6.36006 kvar=1.2914652651519052 Phases=2

New Load.load_p2ulv18526 conn=wye bus1=p2ulv18526.1.2 kV=0.2080002494301389 Vminpu=0.8 Vmaxpu=1.2 model=1 kW=5.68006 kvar=1.1504099629613984 Phases=2

New Load.load_p2ulv18730 conn=wye bus1=p2ulv18730.1.2 kV=0.2080002494301389 Vminpu=0.8 Vmaxpu=1.2 model=1 kW=5.170050000000001 kvar=1.0498234284108339 Phases=2

New Load.load_p2ulv18782 conn=wye bus1=p2ulv18782.1.2 kV=0.2080002494301389 Vminpu=0.8 Vmaxpu=1.2 model=1 kW=5.03005 kvar=1.0187603008056223 Phases=2

New Load.load_p2ulv18783 conn=wye bus1=p2ulv18783.1.2 kV=0.2080002494301389 Vminpu=0.8 Vmaxpu=1.2 model=1 kW=4.85005 kvar=0.9797575997503596 Phases=2

New Load.load_p2ulv19020 conn=wye bus1=p2ulv19020.1.2 kV=0.2080002494301389 Vminpu=0.8 Vmaxpu=1.2 model=1 kW=9.7001 kvar=1.9696893140159053 Phases=2

New Load.load_p2ulv19021 conn=wye bus1=p2ulv19021.1.2 kV=0.2080002494301389 Vminpu=0.8 Vmaxpu=1.2 model=1 kW=18.360200000000003 kvar=6.0281882147487735 Phases=2

New Load.load_p2ulv19022 conn=wye bus1=p2ulv19022.1.2 kV=0.2080002494301389 Vminpu=0.8 Vmaxpu=1.2 model=1 kW=8.01008 kvar=1.6307025579717946 Phases=2

New Load.load_p2ulv19207 conn=wye bus1=p2ulv19207.1.2 kV=0.2080002494301389 Vminpu=0.8 Vmaxpu=1.2 model=1 kW=5.26005 kvar=1.070847855459563 Phases=2

New Load.load_p2ulv19506 conn=wye bus1=p2ulv19506.1.2 kV=0.2080002494301389 Vminpu=0.8 Vmaxpu=1.2 model=1 kW=5.00005 kvar=1.0205240803677447 Phases=2

New Load.load_p2ulv19507 conn=wye bus1=p2ulv19507.1.2 kV=0.2080002494301389 Vminpu=0.8 Vmaxpu=1.2 model=1 kW=5.08005 kvar=1.0288870420985081 Phases=2

New Load.load_p2ulv19735 conn=wye bus1=p2ulv19735.1.2 kV=0.2080002494301389 Vminpu=0.8 Vmaxpu=1.2 model=1 kW=5.130050000000001 kvar=1.0390137833913942 Phases=2

New Load.load_p2ulv19950 conn=wye bus1=p2ulv19950.1.2 kV=0.2080002494301389 Vminpu=0.8 Vmaxpu=1.2 model=1 kW=5.06005 kvar=1.030131593999708 Phases=2

New Load.load_p2umv21 conn=wye bus1=p2umv21.1.2.3 kV=12.47 Vminpu=0.8 Vmaxpu=1.2 model=1 kW=1396.1300000000003 kvar=283.4962878709524 Phases=3

New Load.load_p2ulv20169 conn=wye bus1=p2ulv20169.1.2 kV=0.2080002494301389 Vminpu=0.8 Vmaxpu=1.2 model=1 kW=5.63006 kvar=1.1402832216685126 Phases=2

New Load.load_p2ulv20170 conn=wye bus1=p2ulv20170.1.2 kV=0.2080002494301389 Vminpu=0.8 Vmaxpu=1.2 model=1 kW=4.87005 kvar=0.9889058302206326 Phases=2

New Load.load_p2ulv20402 conn=wye bus1=p2ulv20402.1.2 kV=0.2080002494301389 Vminpu=0.8 Vmaxpu=1.2 model=1 kW=11.8701 kvar=2.4103266075916947 Phases=2

New Load.load_p2ulv20405 conn=wye bus1=p2ulv20405.1.2 kV=0.2080002494301389 Vminpu=0.8 Vmaxpu=1.2 model=1 kW=5.55006 kvar=1.1298884703894267 Phases=2

New Load.load_p2ulv20406 conn=wye bus1=p2ulv20406.1.2.3 kV=0.48 Vminpu=0.8 Vmaxpu=1.2 model=1 kW=217.43200000000002 kvar=44.15145069897281 Phases=3

New Load.load_p2ulv20615 conn=wye bus1=p2ulv20615.1.2 kV=0.2080002494301389 Vminpu=0.8 Vmaxpu=1.2 model=1 kW=6.780070000000001 kvar=1.3802955141806108 Phases=2

New Load.load_p2umv22 conn=wye bus1=p2umv22.1.2.3 kV=12.47 Vminpu=0.8 Vmaxpu=1.2 model=1 kW=788.5180000000001 kvar=259.17333324742685 Phases=3

New Load.load_p2ulv21035 conn=wye bus1=p2ulv21035.1.2 kV=0.2080002494301389 Vminpu=0.8 Vmaxpu=1.2 model=1 kW=7.77008 kvar=1.5818430442199682 Phases=2

New Load.load_p2ulv21210 conn=wye bus1=p2ulv18525.1.2 kV=0.2080002494301389 Vminpu=0.8 Vmaxpu=1.2 model=1 kW=5.72006 kvar=1.1585113559957074 Phases=2

New Load.load_p2ulv21264 conn=wye bus1=p2ulv21264.1.2.3 kV=0.48 Vminpu=0.8 Vmaxpu=1.2 model=1 kW=86.50090000000002 kvar=28.431470913666324 Phases=3
