New Linecode.3P_OH_AL_ACSR_4/0_Penguin_12_47_0_3_3_3_3 units=km nphases=3 Faultrate=0.1 Rmatrix=(0.3635667 0.09006667 0.09006667 | 0.09006667 0.3635667 0.09006667 | 0.09006667 0.09006667 0.3635667 ) Xmatrix=(0.6385333 0.2202333 0.2202333 | 0.2202333 0.6385333 0.2202333 | 0.2202333 0.2202333 0.6385333 ) Cmatrix=(7.448267 -3.1846329999999994 -3.1846329999999994 | -3.1846329999999994 7.448267 -3.1846329999999994 | -3.1846329999999994 -3.1846329999999994 7.448267 ) normamps=325.0

New Linecode.3P_UG_AL_4/0_15_0_416_0_3_3_3_3 units=km nphases=3 Faultrate=0.1 Rmatrix=(0.445 0.1745 0.1745 | 0.1745 0.445 0.1745 | 0.1745 0.1745 0.445 ) Xmatrix=(0.5326 0.2912 0.2912 | 0.2912 0.5326 0.2912 | 0.2912 0.2912 0.5326 ) Cmatrix=(145.291 -72.088 -72.088 | -72.088 145.291 -72.088 | -72.088 -72.088 145.291 ) normamps=285.0

New Linecode.3P_UG_AL_350kcmil_15_0_416_0_3_3_3_3 units=km nphases=3 Faultrate=0.1 Rmatrix=(0.3388667 0.1744667 0.1744667 | 0.1744667 0.3388667 0.1744667 | 0.1744667 0.1744667 0.3388667 ) Xmatrix=(0.5126 0.2912 0.2912 | 0.2912 0.5126 0.2912 | 0.2912 0.2912 0.5126 ) Cmatrix=(164.365 -81.63499999999999 -81.63499999999999 | -81.63499999999999 164.365 -81.63499999999999 | -81.63499999999999 -81.63499999999999 164.365 ) normamps=370.0

