New Transformer.sb2_p5uhs12_1247_trans_51 phases=3 windings=2 wdg=1 conn=delta Kv=69.0 kva=22400.0 %R=0.370153834758116 bus=sb2_p5uhs12_1247_node_2_10 wdg=2 conn=wye Kv=12.47 kva=22400.0 %R=0.370153834758116 bus=sb2_p5uhs12_1247_node_2_11 XHL=7.40307669516232

