New Load.load_p1ulv731 conn=wye bus1=p1ulv731.1.2 kV=0.2080002494301389 Vminpu=0.8 Vmaxpu=1.2 model=1 kW=6.43006 kvar=1.3090400208127908 Phases=2

New Load.load_p1ulv1361 conn=wye bus1=p1ulv1361.1.2.3 kV=0.48 Vminpu=0.8 Vmaxpu=1.2 model=1 kW=34.80029999999999 kvar=7.06650230766154 Phases=3

New Load.load_p1ulv3928 conn=wye bus1=p1ulv3928.1.2 kV=0.2080002494301389 Vminpu=0.8 Vmaxpu=1.2 model=1 kW=10.0801 kvar=2.0521199357074447 Phases=2

New Load.load_p1ulv4496 conn=wye bus1=p1ulv4496.1.2 kV=0.2080002494301389 Vminpu=0.8 Vmaxpu=1.2 model=1 kW=19.0902 kvar=3.876430443235269 Phases=2

New Load.load_p1ulv6407 conn=wye bus1=p1ulv6407.1.2.3 kV=0.48 Vminpu=0.8 Vmaxpu=1.2 model=1 kW=32.7503 kvar=6.650232053361831 Phases=3

New Load.load_p1ulv7061 conn=wye bus1=p1ulv7061.1.2.3 kV=0.48 Vminpu=0.8 Vmaxpu=1.2 model=1 kW=134.791 kvar=27.370479925518065 Phases=3

New Load.load_p1ulv10141 conn=wye bus1=p1ulv10141.1.2 kV=0.2080002494301389 Vminpu=0.8 Vmaxpu=1.2 model=1 kW=10.840100000000001 kvar=2.2011761871386697 Phases=2

New Load.load_p1ulv11382 conn=wye bus1=p1ulv11382.1.2.3 kV=0.48 Vminpu=0.8 Vmaxpu=1.2 model=1 kW=34.7903 kvar=7.0644717210552 Phases=3

New Load.load_p1ulv12643 conn=wye bus1=p1ulv12643.1.2.3 kV=0.48 Vminpu=0.8 Vmaxpu=1.2 model=1 kW=44.0204 kvar=8.938723464573123 Phases=3

New Load.load_p1ulv13273 conn=wye bus1=p1ulv13273.1.2.3 kV=0.48 Vminpu=0.8 Vmaxpu=1.2 model=1 kW=31.6403 kvar=6.4248369400580865 Phases=3

New Load.load_p1ulv14495 conn=wye bus1=p1ulv14495.1.2.3 kV=0.48 Vminpu=0.8 Vmaxpu=1.2 model=1 kW=44.6304 kvar=9.062589247559867 Phases=3

New Load.load_p1ulv14530 conn=wye bus1=p1ulv14530.1.2.3 kV=0.48 Vminpu=0.8 Vmaxpu=1.2 model=1 kW=33.3903 kvar=6.780189596167593 Phases=3

New Load.load_p1ulv15739 conn=wye bus1=p1ulv15739.1.2.3 kV=0.48 Vminpu=0.8 Vmaxpu=1.2 model=1 kW=30.540300000000002 kvar=6.201472413360682 Phases=3

New Load.load_p1ulv17703 conn=wye bus1=p1ulv17703.1.2.3 kV=0.48 Vminpu=0.8 Vmaxpu=1.2 model=1 kW=33.9403 kvar=6.891871859516296 Phases=3

New Load.load_p1ulv19642 conn=wye bus1=p1ulv19642.1.2 kV=0.2080002494301389 Vminpu=0.8 Vmaxpu=1.2 model=1 kW=16.930200000000003 kvar=3.4378237362658197 Phases=2

New Load.load_p1ulv25394 conn=wye bus1=p1ulv25394.1.2 kV=0.2080002494301389 Vminpu=0.8 Vmaxpu=1.2 model=1 kW=13.9501 kvar=2.832688621710423 Phases=2

New Load.load_p1ulv26036 conn=wye bus1=p1ulv26036.1.2.3 kV=0.48 Vminpu=0.8 Vmaxpu=1.2 model=1 kW=155.582 kvar=31.592272538759655 Phases=3

New Load.load_p1ulv28601 conn=wye bus1=p1ulv28601.1.2.3 kV=0.48 Vminpu=0.8 Vmaxpu=1.2 model=1 kW=35.3004 kvar=7.168051943844606 Phases=3

New Load.load_p1ulv32342 conn=wye bus1=p1ulv32342.1.2.3 kV=0.48 Vminpu=0.8 Vmaxpu=1.2 model=1 kW=34.6903 kvar=7.0441658549918 Phases=3

New Load.load_p1ulv33664 conn=wye bus1=p1ulv33664.1.2.3 kV=0.48 Vminpu=0.8 Vmaxpu=1.2 model=1 kW=30.5603 kvar=6.205533586573361 Phases=3

New Load.load_p1ulv39980 conn=wye bus1=p1ulv39980.1.2.3 kV=0.48 Vminpu=0.8 Vmaxpu=1.2 model=1 kW=36.5204 kvar=7.415783509818091 Phases=3

New Load.load_p1ulv42472 conn=wye bus1=p1ulv42472.1.2.3 kV=0.48 Vminpu=0.8 Vmaxpu=1.2 model=1 kW=36.5904 kvar=7.4299976160624706 Phases=3

New Load.load_p1ulv45670 conn=wye bus1=p1ulv45670.1.2 kV=0.2080002494301389 Vminpu=0.8 Vmaxpu=1.2 model=1 kW=16.4802 kvar=3.346447338980518 Phases=2

New Load.load_p1ulv50616 conn=wye bus1=p1ulv50616.1.2 kV=0.2080002494301389 Vminpu=0.8 Vmaxpu=1.2 model=1 kW=10.7301 kvar=2.178839734468929 Phases=2

New Load.load_p1ulv51226 conn=wye bus1=p1ulv51226.1.2.3 kV=0.48 Vminpu=0.8 Vmaxpu=1.2 model=1 kW=148.881 kvar=30.231576453851194 Phases=3

New Load.load_p1ulv51227 conn=wye bus1=p1ulv51227.1.2.3 kV=0.48 Vminpu=0.8 Vmaxpu=1.2 model=1 kW=34.9403 kvar=7.0949305201502995 Phases=3

New Load.load_p1ulv51852 conn=wye bus1=p1ulv51852.1.2 kV=0.2080002494301389 Vminpu=0.8 Vmaxpu=1.2 model=1 kW=19.4202 kvar=3.9434398012444905 Phases=2

New Load.load_p1ulv51857 conn=wye bus1=p1ulv51857.1.2.3 kV=0.48 Vminpu=0.8 Vmaxpu=1.2 model=1 kW=37.0204 kvar=7.517312840135093 Phases=3

New Load.load_p1ulv53106 conn=wye bus1=p1ulv53106.1.2.3 kV=0.48 Vminpu=0.8 Vmaxpu=1.2 model=1 kW=36.2904 kvar=7.369080017872269 Phases=3

New Load.load_p1ulv53148 conn=wye bus1=p1ulv53148.1.2.3 kV=0.48 Vminpu=0.8 Vmaxpu=1.2 model=1 kW=31.930299999999995 kvar=6.483723951641947 Phases=3

New Load.load_p1ulv55040 conn=wye bus1=p1ulv55040.1.2.3 kV=0.48 Vminpu=0.8 Vmaxpu=1.2 model=1 kW=20.1502 kvar=4.091672623507313 Phases=3

New Load.load_p1ulv56806 conn=wye bus1=p1ulv56806.1.2 kV=0.2080002494301389 Vminpu=0.8 Vmaxpu=1.2 model=1 kW=17.610200000000003 kvar=3.5759036254969425 Phases=2

New Load.load_p1ulv56835 conn=wye bus1=p1ulv56835.1.2 kV=0.2080002494301389 Vminpu=0.8 Vmaxpu=1.2 model=1 kW=9.040090000000001 kvar=1.8403933403031236 Phases=2

New Load.load_p1ulv61097 conn=wye bus1=p1ulv61097.1.2 kV=0.2080002494301389 Vminpu=0.8 Vmaxpu=1.2 model=1 kW=14.7101 kvar=2.9870132037922668 Phases=2

New Load.load_p1ulv61724 conn=wye bus1=p1ulv61724.1.2.3 kV=0.48 Vminpu=0.8 Vmaxpu=1.2 model=1 kW=38.400400000000005 kvar=7.797533791810018 Phases=3

New Load.load_p1ulv64243 conn=wye bus1=p1ulv64243.1.2.3 kV=0.48 Vminpu=0.8 Vmaxpu=1.2 model=1 kW=32.6803 kvar=6.636017947117451 Phases=3

New Load.load_p1ulv64858 conn=wye bus1=p1ulv64858.1.2 kV=0.2080002494301389 Vminpu=0.8 Vmaxpu=1.2 model=1 kW=12.5401 kvar=2.5529299516636668 Phases=2

New Load.load_p1ulv64860 conn=wye bus1=p1ulv64860.1.2.3 kV=0.48 Vminpu=0.8 Vmaxpu=1.2 model=1 kW=30.640299999999996 kvar=6.221778279424082 Phases=3

New Load.load_p1ulv64891 conn=wye bus1=p1ulv64891.1.2 kV=0.2080002494301389 Vminpu=0.8 Vmaxpu=1.2 model=1 kW=14.8501 kvar=3.007662417469721 Phases=2

