New Line.l(r:p5udm21024-p5ulv19358) Units=km Length=0.0178827 bus1=p5udm21024.1.2 bus2=p5ulv19358.1.2 switch=n enabled=y phases=2 Linecode=1P_UG_AL_1/0_Brenau_0_416_0_2_2_2_2

New Line.l(r:p5udm21024-p5udt7958lv) Units=km Length=0.00990581 bus1=p5udt7958lv.1.2 bus2=p5udm21024.1.2 switch=n enabled=y phases=2 Linecode=1P_UG_AL_1/0_Brenau_0_416_0_2_2_2_2

New Line.l(r:p5udm21025-p5ulv71291) Units=km Length=0.0173693 bus1=p5udm21025.1.2 bus2=p5ulv71291.1.2 switch=n enabled=y phases=2 Linecode=1P_UG_AL_1/0_Brenau_0_416_0_2_2_2_2

New Line.l(r:p5udm21025-p5udt7958lv) Units=km Length=0.00990581 bus1=p5udt7958lv.1.2 bus2=p5udm21025.1.2 switch=n enabled=y phases=2 Linecode=1P_UG_AL_1/0_Brenau_0_416_0_2_2_2_2

New Line.l(r:p5udt7959lv-p5ulv74630) Units=km Length=0.0147743 bus1=p5udt7959lv.1.2 bus2=p5ulv74630.1.2 switch=n enabled=y phases=2 Linecode=1P_UG_AL_1/0_Brenau_0_416_0_2_2_2_2

New Line.l(r:p5udm21026-p5ulv19359) Units=km Length=0.0150028 bus1=p5udm21026.1.2 bus2=p5ulv19359.1.2 switch=n enabled=y phases=2 Linecode=1P_UG_AL_1/0_Brenau_0_416_0_2_2_2_2

New Line.l(r:p5udm21026-p5udt7959lv) Units=km Length=0.00865273 bus1=p5udt7959lv.1.2 bus2=p5udm21026.1.2 switch=n enabled=y phases=2 Linecode=1P_UG_AL_1/0_Brenau_0_416_0_2_2_2_2

New Line.l(r:p5udm21027-p5ulv53886) Units=km Length=0.0172533 bus1=p5udm21027.1.2 bus2=p5ulv53886.1.2 switch=n enabled=y phases=2 Linecode=1P_UG_AL_1/0_Brenau_0_416_0_2_2_2_2

New Line.l(r:p5udm21027-p5udt7959lv) Units=km Length=0.00865273 bus1=p5udt7959lv.1.2 bus2=p5udm21027.1.2 switch=n enabled=y phases=2 Linecode=1P_UG_AL_1/0_Brenau_0_416_0_2_2_2_2

New Line.l(r:p5udt7960lv-p5ulv56177) Units=km Length=0.0159765 bus1=p5udt7960lv.1.2 bus2=p5ulv56177.1.2 switch=n enabled=y phases=2 Linecode=1P_UG_AL_1/0_Brenau_0_416_0_2_2_2_2

New Line.l(r:p5udm21029-p5ulv19360) Units=km Length=0.0238391 bus1=p5udm21029.1.2 bus2=p5ulv19360.1.2 switch=n enabled=y phases=2 Linecode=1P_UG_AL_1/0_Brenau_0_416_0_2_2_2_2

New Line.l(r:p5udm21029-p5udt7960lv) Units=km Length=0.0289142 bus1=p5udt7960lv.1.2 bus2=p5udm21029.1.2 switch=n enabled=y phases=2 Linecode=1P_UG_AL_1/0_Brenau_0_416_0_2_2_2_2

New Line.l(r:p5udm21031-p5ulv71297) Units=km Length=0.0175762 bus1=p5udm21031.1.2 bus2=p5ulv71297.1.2 switch=n enabled=y phases=2 Linecode=1P_UG_AL_1/0_Brenau_0_416_0_2_2_2_2

New Line.l(r:p5udm21031-p5udt7960lv) Units=km Length=0.0192713 bus1=p5udt7960lv.1.2 bus2=p5udm21031.1.2 switch=n enabled=y phases=2 Linecode=1P_UG_AL_1/0_Brenau_0_416_0_2_2_2_2

New Line.l(r:p5udm21046-p5ulv19364) Units=km Length=0.0185055 bus1=p5udm21046.1.2 bus2=p5ulv19364.1.2 switch=n enabled=y phases=2 Linecode=1P_UG_AL_1/0_Brenau_0_416_0_2_2_2_2

New Line.l(r:p5udm21048-p5ulv48835) Units=km Length=0.0187214 bus1=p5udm21048.1.2 bus2=p5ulv48835.1.2 switch=n enabled=y phases=2 Linecode=1P_UG_AL_1/0_Brenau_0_416_0_2_2_2_2

New Line.l(r:p5udm21046-p5udm21048) Units=km Length=0.0879916 bus1=p5udm21046.1.2 bus2=p5udm21048.1.2 switch=n enabled=y phases=2 Linecode=1P_UG_AL_1/0_Brenau_0_416_0_2_2_2_2

New Line.l(r:p5udm21046-p5udt7964lv) Units=km Length=0.00965468 bus1=p5udt7964lv.1.2 bus2=p5udm21046.1.2 switch=n enabled=y phases=2 Linecode=1P_UG_AL_1/0_Brenau_0_416_0_2_2_2_2

New Line.l(r:p5udm21047-p5ulv26051) Units=km Length=0.0143741 bus1=p5udm21047.1.2 bus2=p5ulv26051.1.2 switch=n enabled=y phases=2 Linecode=1P_UG_AL_1/0_Brenau_0_416_0_2_2_2_2

New Line.l(r:p5udm21047-p5ulv72972) Units=km Length=0.014133800000000002 bus1=p5udm21047.1.2 bus2=p5ulv72972.1.2 switch=n enabled=y phases=2 Linecode=1P_UG_AL_1/0_Brenau_0_416_0_2_2_2_2

New Line.l(r:p5udm21047-p5udt7964lv) Units=km Length=0.0289711 bus1=p5udt7964lv.1.2 bus2=p5udm21047.1.2 switch=n enabled=y phases=2 Linecode=1P_UG_AL_4/0_Sweetbriar_0_416_0_2_2_2_2

New Line.l(r:p5udt8018lv-p5ulv19418) Units=km Length=0.00635814 bus1=p5udt8018lv.1.2 bus2=p5ulv19418.1.2 switch=n enabled=y phases=2 Linecode=1P_OH_AL_2/0_Rucina_0_416_0_2_2_2_2

New Line.l(r:p5udt8503lv-p5ulv39900) Units=km Length=0.0226467 bus1=p5udt8503lv.1.2 bus2=p5ulv39900.1.2 switch=n enabled=y phases=2 Linecode=1P_UG_AL_1/0_Brenau_0_416_0_2_2_2_2

New Line.l(r:p5udm22839-p5ulv19916) Units=km Length=0.0199097 bus1=p5udm22839.1.2 bus2=p5ulv19916.1.2 switch=n enabled=y phases=2 Linecode=1P_UG_AL_1/0_Brenau_0_416_0_2_2_2_2

New Line.l(r:p5udm22839-p5ulv49408) Units=km Length=0.017232 bus1=p5udm22839.1.2 bus2=p5ulv49408.1.2 switch=n enabled=y phases=2 Linecode=1P_UG_AL_4/0_Sweetbriar_0_416_0_2_2_2_2

New Line.l(r:p5udm22839-p5udt8503lv) Units=km Length=0.00985385 bus1=p5udt8503lv.1.2 bus2=p5udm22839.1.2 switch=n enabled=y phases=2 Linecode=1P_UG_AL_4/0_Sweetbriar_0_416_0_2_2_2_2

New Line.l(r:p5udm22840-p5ulv21014) Units=km Length=0.01546 bus1=p5udm22840.1.2 bus2=p5ulv21014.1.2 switch=n enabled=y phases=2 Linecode=1P_UG_AL_1/0_Brenau_0_416_0_2_2_2_2

New Line.l(r:p5udm22840-p5udt8503lv) Units=km Length=0.029545400000000003 bus1=p5udt8503lv.1.2 bus2=p5udm22840.1.2 switch=n enabled=y phases=2 Linecode=1P_UG_AL_1/0_Brenau_0_416_0_2_2_2_2

New Line.l(r:p5udm22856-p5ulv19921) Units=km Length=0.00681171 bus1=p5udm22856.1.2 bus2=p5ulv19921.1.2 switch=n enabled=y phases=2 Linecode=1P_UG_AL_1/0_Brenau_0_416_0_2_2_2_2

New Line.l(r:p5udm22856-p5udt8508lv) Units=km Length=0.0199372 bus1=p5udt8508lv.1.2 bus2=p5udm22856.1.2 switch=n enabled=y phases=2 Linecode=1P_UG_AL_1/0_Brenau_0_416_0_2_2_2_2

New Line.l(r:p5udm22857-p5ulv21552) Units=km Length=0.00567127 bus1=p5udm22857.1.2 bus2=p5ulv21552.1.2 switch=n enabled=y phases=2 Linecode=1P_UG_AL_2/0_Converse_0_416_0_2_2_2_2

New Line.l(r:p5udm22857-p5ulv28895) Units=km Length=0.011418 bus1=p5udm22857.1.2 bus2=p5ulv28895.1.2 switch=n enabled=y phases=2 Linecode=1P_UG_AL_1/0_Brenau_0_416_0_2_2_2_2

New Line.l(r:p5udm22857-p5udt8508lv) Units=km Length=0.00997309 bus1=p5udt8508lv.1.2 bus2=p5udm22857.1.2 switch=n enabled=y phases=2 Linecode=1P_UG_AL_4/0_Sweetbriar_0_416_0_2_2_2_2

New Line.l(r:p5udt8509lv-p5ulv19922) Units=km Length=0.0299456 bus1=p5udt8509lv.1.2 bus2=p5ulv19922.1.2 switch=n enabled=y phases=2 Linecode=1P_UG_AL_4/0_Sweetbriar_0_416_0_2_2_2_2

New Line.l(r:p5udt8509lv-p5ulv72966) Units=km Length=0.0254022 bus1=p5udt8509lv.1.2 bus2=p5ulv72966.1.2 switch=n enabled=y phases=2 Linecode=1P_UG_AL_2/0_Converse_0_416_0_2_2_2_2

New Line.l(r:p5udt8509lv-p5ulv74087) Units=km Length=0.030877200000000004 bus1=p5udt8509lv.1.2 bus2=p5ulv74087.1.2 switch=n enabled=y phases=2 Linecode=1P_UG_AL_1/0_Brenau_0_416_0_2_2_2_2

New Line.l(r:p5udm22860-p5ulv22104) Units=km Length=0.0139583 bus1=p5udm22860.1.2 bus2=p5ulv22104.1.2 switch=n enabled=y phases=2 Linecode=1P_UG_AL_1/0_Brenau_0_416_0_2_2_2_2

New Line.l(r:p5udm22860-p5udt8509lv) Units=km Length=0.0190567 bus1=p5udt8509lv.1.2 bus2=p5udm22860.1.2 switch=n enabled=y phases=2 Linecode=1P_UG_AL_1/0_Brenau_0_416_0_2_2_2_2

New Line.l(r:p5udt8510lv-p5ulv19923) Units=km Length=0.0156536 bus1=p5udt8510lv.1.2 bus2=p5ulv19923.1.2 switch=n enabled=y phases=2 Linecode=1P_UG_AL_2/0_Converse_0_416_0_2_2_2_2

New Line.l(r:p5udt8581lv-p5ulv76969) Units=km Length=0.0122677 bus1=p5udt8581lv.1.2 bus2=p5ulv76969.1.2 switch=n enabled=y phases=2 Linecode=1P_UG_AL_4/0_Sweetbriar_0_416_0_2_2_2_2

New Line.l(r:p5udm23062-p5ulv19996) Units=km Length=0.0106438 bus1=p5udm23062.1.2 bus2=p5ulv19996.1.2 switch=n enabled=y phases=2 Linecode=1P_UG_AL_1/0_Brenau_0_416_0_2_2_2_2

New Line.l(r:p5udm23062-p5udt8581lv) Units=km Length=0.00953042 bus1=p5udt8581lv.1.2 bus2=p5udm23062.1.2 switch=n enabled=y phases=2 Linecode=1P_UG_AL_1/0_Brenau_0_416_0_2_2_2_2

New Line.l(r:p5udm23063-p5ulv45587) Units=km Length=0.0177321 bus1=p5udm23063.1.2 bus2=p5ulv45587.1.2 switch=n enabled=y phases=2 Linecode=1P_UG_AL_1/0_Brenau_0_416_0_2_2_2_2

New Line.l(r:p5udm23063-p5udt8581lv) Units=km Length=0.0190385 bus1=p5udt8581lv.1.2 bus2=p5udm23063.1.2 switch=n enabled=y phases=2 Linecode=1P_UG_AL_1/0_Brenau_0_416_0_2_2_2_2

New Line.l(r:p5udm24464-p5ulv20468) Units=km Length=0.0149348 bus1=p5udm24464.1.2 bus2=p5ulv20468.1.2 switch=n enabled=y phases=2 Linecode=1P_UG_AL_1/0_Brenau_0_416_0_2_2_2_2

New Line.l(r:p5udm24466-p5ulv64648) Units=km Length=0.014380600000000002 bus1=p5udm24466.1.2 bus2=p5ulv64648.1.2 switch=n enabled=y phases=2 Linecode=1P_UG_AL_1/0_Brenau_0_416_0_2_2_2_2

New Line.l(r:p5udm24464-p5udm24466) Units=km Length=0.00961439 bus1=p5udm24464.1.2 bus2=p5udm24466.1.2 switch=n enabled=y phases=2 Linecode=1P_UG_AL_1/0_Brenau_0_416_0_2_2_2_2

New Line.l(r:p5udm24464-p5udt9026lv) Units=km Length=0.00962351 bus1=p5udt9026lv.1.2 bus2=p5udm24464.1.2 switch=n enabled=y phases=2 Linecode=1P_UG_AL_4/0_Sweetbriar_0_416_0_2_2_2_2

New Line.l(r:p5udm24465-p5ulv62398) Units=km Length=0.0190046 bus1=p5udm24465.1.2 bus2=p5ulv62398.1.2 switch=n enabled=y phases=2 Linecode=1P_UG_AL_1/0_Brenau_0_416_0_2_2_2_2

New Line.l(r:p5udm24465-p5ulv69656) Units=km Length=0.012697 bus1=p5udm24465.1.2 bus2=p5ulv69656.1.2 switch=n enabled=y phases=2 Linecode=1P_UG_AL_1/0_Brenau_0_416_0_2_2_2_2

New Line.l(r:p5udm24467-p5ulv65737) Units=km Length=0.0103022 bus1=p5udm24467.1.2 bus2=p5ulv65737.1.2 switch=n enabled=y phases=2 Linecode=1P_UG_AL_1/0_Brenau_0_416_0_2_2_2_2

New Line.l(r:p5udm24465-p5udm24467) Units=km Length=0.00961849 bus1=p5udm24465.1.2 bus2=p5udm24467.1.2 switch=n enabled=y phases=2 Linecode=1P_UG_AL_1/0_Brenau_0_416_0_2_2_2_2

New Line.l(r:p5udm24465-p5udt9026lv) Units=km Length=0.00961439 bus1=p5udt9026lv.1.2 bus2=p5udm24465.1.2 switch=n enabled=y phases=2 Linecode=1P_UG_AL_4/0_Sweetbriar_0_416_0_2_2_2_2

New Line.l(r:p5udm24469-p5ulv20469) Units=km Length=0.0190081 bus1=p5udm24469.1.2 bus2=p5ulv20469.1.2 switch=n enabled=y phases=2 Linecode=1P_UG_AL_1/0_Brenau_0_416_0_2_2_2_2

New Line.l(r:p5udm24472-p5ulv59569) Units=km Length=0.0197576 bus1=p5udm24472.1.2 bus2=p5ulv59569.1.2 switch=n enabled=y phases=2 Linecode=1P_UG_AL_1/0_Brenau_0_416_0_2_2_2_2

New Line.l(r:p5udm24469-p5udm24472) Units=km Length=0.017329 bus1=p5udm24469.1.2 bus2=p5udm24472.1.2 switch=n enabled=y phases=2 Linecode=1P_UG_AL_1/0_Brenau_0_416_0_2_2_2_2

New Line.l(r:p5udm24469-p5udt9027lv) Units=km Length=0.0235842 bus1=p5udt9027lv.1.2 bus2=p5udm24469.1.2 switch=n enabled=y phases=2 Linecode=1P_UG_AL_4/0_Sweetbriar_0_416_0_2_2_2_2

New Line.l(r:p5udm24470-p5ulv26050) Units=km Length=0.0196072 bus1=p5udm24470.1.2 bus2=p5ulv26050.1.2 switch=n enabled=y phases=2 Linecode=1P_UG_AL_1/0_Brenau_0_416_0_2_2_2_2

New Line.l(r:p5udm24471-p5ulv48833) Units=km Length=0.0178193 bus1=p5udm24471.1.2 bus2=p5ulv48833.1.2 switch=n enabled=y phases=2 Linecode=1P_UG_AL_1/0_Brenau_0_416_0_2_2_2_2

New Line.l(r:p5udm24470-p5udm24471) Units=km Length=0.00938352 bus1=p5udm24470.1.2 bus2=p5udm24471.1.2 switch=n enabled=y phases=2 Linecode=1P_UG_AL_1/0_Brenau_0_416_0_2_2_2_2

New Line.l(r:p5udm24470-p5udt9027lv) Units=km Length=0.0329172 bus1=p5udt9027lv.1.2 bus2=p5udm24470.1.2 switch=n enabled=y phases=2 Linecode=1P_UG_AL_4/0_Sweetbriar_0_416_0_2_2_2_2

New Line.l(r:p5udm26152-p5ulv21017) Units=km Length=0.0109883 bus1=p5udm26152.1.2 bus2=p5ulv21017.1.2 switch=n enabled=y phases=2 Linecode=1P_UG_AL_1/0_Brenau_0_416_0_2_2_2_2

New Line.l(r:p5udm26154-p5ulv52802) Units=km Length=0.012131900000000001 bus1=p5udm26154.1.2 bus2=p5ulv52802.1.2 switch=n enabled=y phases=2 Linecode=1P_UG_AL_1/0_Brenau_0_416_0_2_2_2_2

New Line.l(r:p5udm26152-p5udm26154) Units=km Length=0.00929688 bus1=p5udm26152.1.2 bus2=p5udm26154.1.2 switch=n enabled=y phases=2 Linecode=1P_UG_AL_1/0_Brenau_0_416_0_2_2_2_2

New Line.l(r:p5udm26152-p5udt9539lv) Units=km Length=0.009227520000000001 bus1=p5udt9539lv.1.2 bus2=p5udm26152.1.2 switch=n enabled=y phases=2 Linecode=1P_UG_AL_1/0_Brenau_0_416_0_2_2_2_2

New Line.l(r:p5udm26153-p5ulv25570) Units=km Length=0.0111214 bus1=p5udm26153.1.2 bus2=p5ulv25570.1.2 switch=n enabled=y phases=2 Linecode=1P_UG_AL_4/0_Sweetbriar_0_416_0_2_2_2_2

New Line.l(r:p5udm26153-p5udt9539lv) Units=km Length=0.009227520000000001 bus1=p5udt9539lv.1.2 bus2=p5udm26153.1.2 switch=n enabled=y phases=2 Linecode=1P_UG_AL_4/0_Sweetbriar_0_416_0_2_2_2_2

New Line.l(r:p5udt9541lv-p5ulv21019) Units=km Length=0.0203626 bus1=p5udt9541lv.1.2 bus2=p5ulv21019.1.2 switch=n enabled=y phases=2 Linecode=1P_UG_AL_2/0_Converse_0_416_0_2_2_2_2

New Line.l(r:p5udt9542lv-p5ulv21020) Units=km Length=0.0160527 bus1=p5udt9542lv.1.2 bus2=p5ulv21020.1.2 switch=n enabled=y phases=2 Linecode=1P_UG_AL_1/0_Brenau_0_416_0_2_2_2_2

New Line.l(r:p5udt9542lv-p5ulv33843) Units=km Length=0.0152873 bus1=p5udt9542lv.1.2 bus2=p5ulv33843.1.2 switch=n enabled=y phases=2 Linecode=1P_UG_AL_1/0_Brenau_0_416_0_2_2_2_2

New Line.l(r:p5udm26158-p5ulv28897) Units=km Length=0.0212752 bus1=p5udm26158.1.2 bus2=p5ulv28897.1.2 switch=n enabled=y phases=2 Linecode=1P_UG_AL_1/0_Brenau_0_416_0_2_2_2_2

New Line.l(r:p5udm26158-p5ulv42164) Units=km Length=0.0202823 bus1=p5udm26158.1.2 bus2=p5ulv42164.1.2 switch=n enabled=y phases=2 Linecode=1P_UG_AL_1/0_Brenau_0_416_0_2_2_2_2

New Line.l(r:p5udm26158-p5udt9542lv) Units=km Length=0.0185555 bus1=p5udt9542lv.1.2 bus2=p5udm26158.1.2 switch=n enabled=y phases=2 Linecode=1P_UG_AL_4/0_Sweetbriar_0_416_0_2_2_2_2

New Line.l(r:p5udm26161-p5ulv69044) Units=km Length=0.0147089 bus1=p5udm26161.1.2 bus2=p5ulv69044.1.2 switch=n enabled=y phases=2 Linecode=1P_UG_AL_1/0_Brenau_0_416_0_2_2_2_2

New Line.l(r:p5udm26162-p5ulv74628) Units=km Length=0.0147976 bus1=p5udm26162.1.2 bus2=p5ulv74628.1.2 switch=n enabled=y phases=2 Linecode=1P_UG_AL_1/0_Brenau_0_416_0_2_2_2_2

New Line.l(r:p5udm26161-p5udm26162) Units=km Length=0.00927093 bus1=p5udm26161.1.2 bus2=p5udm26162.1.2 switch=n enabled=y phases=2 Linecode=1P_UG_AL_1/0_Brenau_0_416_0_2_2_2_2

New Line.l(r:p5udm26161-p5udt9542lv) Units=km Length=0.00927967 bus1=p5udt9542lv.1.2 bus2=p5udm26161.1.2 switch=n enabled=y phases=2 Linecode=1P_UG_AL_4/0_Sweetbriar_0_416_0_2_2_2_2

New Line.l(r:p5udt9543lv-p5ulv21021) Units=km Length=0.0129772 bus1=p5udt9543lv.1.2 bus2=p5ulv21021.1.2 switch=n enabled=y phases=2 Linecode=1P_UG_AL_1/0_Brenau_0_416_0_2_2_2_2

New Line.l(r:p5udm26164-p5ulv39387) Units=km Length=0.0116534 bus1=p5udm26164.1.2 bus2=p5ulv39387.1.2 switch=n enabled=y phases=2 Linecode=1P_UG_AL_1/0_Brenau_0_416_0_2_2_2_2

New Line.l(r:p5udm26164-p5udt9543lv) Units=km Length=0.0169491 bus1=p5udt9543lv.1.2 bus2=p5udm26164.1.2 switch=n enabled=y phases=2 Linecode=1P_UG_AL_1/0_Brenau_0_416_0_2_2_2_2

New Line.l(r:p5udm26165-p5ulv45524) Units=km Length=0.0130697 bus1=p5udm26165.1.2 bus2=p5ulv45524.1.2 switch=n enabled=y phases=2 Linecode=1P_UG_AL_4/0_Sweetbriar_0_416_0_2_2_2_2

New Line.l(r:p5udm26165-p5udt9543lv) Units=km Length=0.00846761 bus1=p5udt9543lv.1.2 bus2=p5udm26165.1.2 switch=n enabled=y phases=2 Linecode=1P_UG_AL_4/0_Sweetbriar_0_416_0_2_2_2_2

New Line.l(r:p5udt9544lv-p5ulv21022) Units=km Length=0.0241737 bus1=p5udt9544lv.1.2 bus2=p5ulv21022.1.2 switch=n enabled=y phases=2 Linecode=1P_UG_AL_1/0_Brenau_0_416_0_2_2_2_2

New Line.l(r:p5udt9544lv-p5ulv22664) Units=km Length=0.0272184 bus1=p5udt9544lv.1.2 bus2=p5ulv22664.1.2 switch=n enabled=y phases=2 Linecode=1P_UG_AL_1/0_Brenau_0_416_0_2_2_2_2

New Line.l(r:p5udt9544lv-p5ulv30552) Units=km Length=0.0228966 bus1=p5udt9544lv.1.2 bus2=p5ulv30552.1.2 switch=n enabled=y phases=2 Linecode=1P_UG_AL_1/0_Brenau_0_416_0_2_2_2_2

New Line.l(r:p5udm26168-p5ulv27723) Units=km Length=0.0212352 bus1=p5udm26168.1.2 bus2=p5ulv27723.1.2 switch=n enabled=y phases=2 Linecode=1P_UG_AL_1/0_Brenau_0_416_0_2_2_2_2

New Line.l(r:p5udm26170-p5ulv69049) Units=km Length=0.0219816 bus1=p5udm26170.1.2 bus2=p5ulv69049.1.2 switch=n enabled=y phases=2 Linecode=1P_UG_AL_1/0_Brenau_0_416_0_2_2_2_2

New Line.l(r:p5udm26168-p5udm26170) Units=km Length=0.00988557 bus1=p5udm26168.1.2 bus2=p5udm26170.1.2 switch=n enabled=y phases=2 Linecode=1P_UG_AL_1/0_Brenau_0_416_0_2_2_2_2

New Line.l(r:p5udm26168-p5udt9544lv) Units=km Length=0.00987623 bus1=p5udt9544lv.1.2 bus2=p5udm26168.1.2 switch=n enabled=y phases=2 Linecode=1P_UG_AL_4/0_Sweetbriar_0_416_0_2_2_2_2

New Line.l(r:p5udt10014lv-p5ulv21548) Units=km Length=0.0153844 bus1=p5udt10014lv.1.2 bus2=p5ulv21548.1.2 switch=n enabled=y phases=2 Linecode=1P_UG_AL_1/0_Brenau_0_416_0_2_2_2_2

New Line.l(r:p5udm27725-p5ulv21554) Units=km Length=0.00794836 bus1=p5udm27725.1.2 bus2=p5ulv21554.1.2 switch=n enabled=y phases=2 Linecode=1P_UG_AL_4/0_Sweetbriar_0_416_0_2_2_2_2

New Line.l(r:p5udm27725-p5udt10018lv) Units=km Length=0.0163104 bus1=p5udt10018lv.1.2 bus2=p5udm27725.1.2 switch=n enabled=y phases=2 Linecode=1P_UG_AL_4/0_Sweetbriar_0_416_0_2_2_2_2

New Line.l(r:p5udm27726-p5ulv53892) Units=km Length=0.009417530000000002 bus1=p5udm27726.1.2 bus2=p5ulv53892.1.2 switch=n enabled=y phases=2 Linecode=1P_UG_AL_4/0_Sweetbriar_0_416_0_2_2_2_2

New Line.l(r:p5udm27726-p5udt10018lv) Units=km Length=0.00851719 bus1=p5udt10018lv.1.2 bus2=p5udm27726.1.2 switch=n enabled=y phases=2 Linecode=1P_UG_AL_4/0_Sweetbriar_0_416_0_2_2_2_2

New Line.l(r:p5udt10021lv-p5ulv21557) Units=km Length=0.0170071 bus1=p5udt10021lv.1.2 bus2=p5ulv21557.1.2 switch=n enabled=y phases=2 Linecode=1P_UG_AL_1/0_Brenau_0_416_0_2_2_2_2

New Line.l(r:p5udt10513lv-p5ulv22103) Units=km Length=0.0313037 bus1=p5udt10513lv.1.2 bus2=p5ulv22103.1.2 switch=n enabled=y phases=2 Linecode=1P_UG_AL_4/0_Sweetbriar_0_416_0_2_2_2_2

New Line.l(r:p5udm29299-p5ulv66268) Units=km Length=0.0252299 bus1=p5udm29299.1.2 bus2=p5ulv66268.1.2 switch=n enabled=y phases=2 Linecode=1P_UG_AL_1/0_Brenau_0_416_0_2_2_2_2

New Line.l(r:p5udm29299-p5udt10513lv) Units=km Length=0.00953497 bus1=p5udt10513lv.1.2 bus2=p5udm29299.1.2 switch=n enabled=y phases=2 Linecode=1P_UG_AL_1/0_Brenau_0_416_0_2_2_2_2

New Line.l(r:p5udt10514lv-p5ulv65192) Units=km Length=0.0163998 bus1=p5udt10514lv.1.2 bus2=p5ulv65192.1.2 switch=n enabled=y phases=2 Linecode=1P_UG_AL_4/0_Sweetbriar_0_416_0_2_2_2_2

New Line.l(r:p5udm29300-p5ulv22105) Units=km Length=0.0158626 bus1=p5udm29300.1.2 bus2=p5ulv22105.1.2 switch=n enabled=y phases=2 Linecode=1P_UG_AL_1/0_Brenau_0_416_0_2_2_2_2

New Line.l(r:p5udm29300-p5udt10514lv) Units=km Length=0.00825591 bus1=p5udt10514lv.1.2 bus2=p5udm29300.1.2 switch=n enabled=y phases=2 Linecode=1P_UG_AL_1/0_Brenau_0_416_0_2_2_2_2

New Line.l(r:p5udt10518lv-p5ulv22109) Units=km Length=0.02177 bus1=p5udt10518lv.1.2 bus2=p5ulv22109.1.2 switch=n enabled=y phases=2 Linecode=1P_OH_AL_2/0_Rucina_0_416_0_2_2_2_2

New Line.l(r:p5udt10518lv-p5ulv57308) Units=km Length=0.0423339 bus1=p5udt10518lv.1.2 bus2=p5ulv57308.1.2 switch=n enabled=y phases=2 Linecode=1P_OH_AL_4/0_Zuzara_0_416_0_2_2_2_2

New Line.l(r:p5udt10997lv-p5ulv32173) Units=km Length=0.0147776 bus1=p5udt10997lv.1.2 bus2=p5ulv32173.1.2 switch=n enabled=y phases=2 Linecode=1P_UG_AL_1/0_Brenau_0_416_0_2_2_2_2

New Line.l(r:p5udt10997lv-p5ulv37717) Units=km Length=0.00896799 bus1=p5udt10997lv.1.2 bus2=p5ulv37717.1.2 switch=n enabled=y phases=2 Linecode=1P_UG_AL_1/0_Brenau_0_416_0_2_2_2_2

New Line.l(r:p5udm30802-p5ulv22655) Units=km Length=0.0112749 bus1=p5udm30802.1.2 bus2=p5ulv22655.1.2 switch=n enabled=y phases=2 Linecode=1P_UG_AL_2/0_Converse_0_416_0_2_2_2_2

New Line.l(r:p5udm30802-p5udt10997lv) Units=km Length=0.00902462 bus1=p5udt10997lv.1.2 bus2=p5udm30802.1.2 switch=n enabled=y phases=2 Linecode=1P_UG_AL_2/0_Converse_0_416_0_2_2_2_2

New Line.l(r:p5udm30805-p5ulv22656) Units=km Length=0.0181073 bus1=p5udm30805.1.2 bus2=p5ulv22656.1.2 switch=n enabled=y phases=2 Linecode=1P_UG_AL_1/0_Brenau_0_416_0_2_2_2_2

New Line.l(r:p5udm30805-p5udt10998lv) Units=km Length=0.0590355 bus1=p5udt10998lv.1.2 bus2=p5udm30805.1.2 switch=n enabled=y phases=2 Linecode=1P_UG_AL_1/0_Brenau_0_416_0_2_2_2_2

New Line.l(r:p5udm30806-p5ulv30543) Units=km Length=0.0157135 bus1=p5udm30806.1.2 bus2=p5ulv30543.1.2 switch=n enabled=y phases=2 Linecode=1P_UG_AL_4/0_Sweetbriar_0_416_0_2_2_2_2

New Line.l(r:p5udm30807-p5ulv47697) Units=km Length=0.0164545 bus1=p5udm30807.1.2 bus2=p5ulv47697.1.2 switch=n enabled=y phases=2 Linecode=1P_UG_AL_4/0_Sweetbriar_0_416_0_2_2_2_2

New Line.l(r:p5udm30806-p5udm30807) Units=km Length=0.00961426 bus1=p5udm30806.1.2 bus2=p5udm30807.1.2 switch=n enabled=y phases=2 Linecode=1P_UG_AL_4/0_Sweetbriar_0_416_0_2_2_2_2

New Line.l(r:p5udm30806-p5udt10998lv) Units=km Length=0.00962285 bus1=p5udt10998lv.1.2 bus2=p5udm30806.1.2 switch=n enabled=y phases=2 Linecode=1P_UG_AL_4/0_Sweetbriar_0_416_0_2_2_2_2

New Line.l(r:p5udt10999lv-p5ulv22658) Units=km Length=0.0218917 bus1=p5udt10999lv.1.2 bus2=p5ulv22658.1.2 switch=n enabled=y phases=2 Linecode=1P_OH_AL_2/0_Rucina_0_416_0_2_2_2_2

New Line.l(r:p5udm30809-p5ulv22659) Units=km Length=0.0207849 bus1=p5udm30809.1.2 bus2=p5ulv22659.1.2 switch=n enabled=y phases=2 Linecode=1P_UG_AL_1/0_Brenau_0_416_0_2_2_2_2

New Line.l(r:p5udm30809-p5ulv45522) Units=km Length=0.0139876 bus1=p5udm30809.1.2 bus2=p5ulv45522.1.2 switch=n enabled=y phases=2 Linecode=1P_UG_AL_1/0_Brenau_0_416_0_2_2_2_2

New Line.l(r:p5udm30813-p5ulv66827) Units=km Length=0.0106192 bus1=p5udm30813.1.2 bus2=p5ulv66827.1.2 switch=n enabled=y phases=2 Linecode=1P_UG_AL_1/0_Brenau_0_416_0_2_2_2_2

New Line.l(r:p5udm30809-p5udm30813) Units=km Length=0.048482 bus1=p5udm30809.1.2 bus2=p5udm30813.1.2 switch=n enabled=y phases=2 Linecode=1P_UG_AL_1/0_Brenau_0_416_0_2_2_2_2

New Line.l(r:p5udm30809-p5udt11000lv) Units=km Length=0.00853815 bus1=p5udt11000lv.1.2 bus2=p5udm30809.1.2 switch=n enabled=y phases=2 Linecode=1P_UG_AL_4/0_Sweetbriar_0_416_0_2_2_2_2

New Line.l(r:p5udm30810-p5ulv45521) Units=km Length=0.0145251 bus1=p5udm30810.1.2 bus2=p5ulv45521.1.2 switch=n enabled=y phases=2 Linecode=1P_UG_AL_1/0_Brenau_0_416_0_2_2_2_2

New Line.l(r:p5udm30810-p5ulv49410) Units=km Length=0.0165208 bus1=p5udm30810.1.2 bus2=p5ulv49410.1.2 switch=n enabled=y phases=2 Linecode=1P_UG_AL_1/0_Brenau_0_416_0_2_2_2_2

New Line.l(r:p5udm30814-p5ulv67383) Units=km Length=0.0153725 bus1=p5udm30814.1.2 bus2=p5ulv67383.1.2 switch=n enabled=y phases=2 Linecode=1P_UG_AL_1/0_Brenau_0_416_0_2_2_2_2

New Line.l(r:p5udm30810-p5udm30814) Units=km Length=0.0132781 bus1=p5udm30810.1.2 bus2=p5udm30814.1.2 switch=n enabled=y phases=2 Linecode=1P_UG_AL_1/0_Brenau_0_416_0_2_2_2_2

New Line.l(r:p5udm30810-p5udt11000lv) Units=km Length=0.0198481 bus1=p5udt11000lv.1.2 bus2=p5udm30810.1.2 switch=n enabled=y phases=2 Linecode=1P_UG_AL_4/0_Sweetbriar_0_416_0_2_2_2_2

New Line.l(r:p5udt11001lv-p5ulv22660) Units=km Length=0.0311289 bus1=p5udt11001lv.1.2 bus2=p5ulv22660.1.2 switch=n enabled=y phases=2 Linecode=1P_OH_AL_4/0_Zuzara_0_416_0_2_2_2_2

New Line.l(r:p5udt11002lv-p5ulv36620) Units=km Length=0.0185748 bus1=p5udt11002lv.1.2 bus2=p5ulv36620.1.2 switch=n enabled=y phases=2 Linecode=1P_UG_AL_1/0_Brenau_0_416_0_2_2_2_2

New Line.l(r:p5udm30816-p5ulv22661) Units=km Length=0.0209024 bus1=p5udm30816.1.2 bus2=p5ulv22661.1.2 switch=n enabled=y phases=2 Linecode=1P_UG_AL_1/0_Brenau_0_416_0_2_2_2_2

New Line.l(r:p5udm30816-p5udt11002lv) Units=km Length=0.0360516 bus1=p5udt11002lv.1.2 bus2=p5udm30816.1.2 switch=n enabled=y phases=2 Linecode=1P_UG_AL_1/0_Brenau_0_416_0_2_2_2_2

New Line.l(r:p5udm30817-p5ulv34901) Units=km Length=0.0192291 bus1=p5udm30817.1.2 bus2=p5ulv34901.1.2 switch=n enabled=y phases=2 Linecode=1P_UG_AL_1/0_Brenau_0_416_0_2_2_2_2

New Line.l(r:p5udm30817-p5udt11002lv) Units=km Length=0.009404390000000002 bus1=p5udt11002lv.1.2 bus2=p5udm30817.1.2 switch=n enabled=y phases=2 Linecode=1P_UG_AL_1/0_Brenau_0_416_0_2_2_2_2

New Line.l(r:p5udt11945lv-p5ulv23786) Units=km Length=0.00800585 bus1=p5udt11945lv.1.2 bus2=p5ulv23786.1.2 switch=n enabled=y phases=2 Linecode=1P_OH_AL_2/0_Rucina_0_416_0_2_2_2_2

New Line.l(r:p5udm33786-p5ulv23793) Units=km Length=0.0195399 bus1=p5udm33786.1.2 bus2=p5ulv23793.1.2 switch=n enabled=y phases=2 Linecode=1P_UG_AL_1/0_Brenau_0_416_0_2_2_2_2

New Line.l(r:p5udm33786-p5ulv36621) Units=km Length=0.0193872 bus1=p5udm33786.1.2 bus2=p5ulv36621.1.2 switch=n enabled=y phases=2 Linecode=1P_UG_AL_2/0_Converse_0_416_0_2_2_2_2

New Line.l(r:p5udm33786-p5ulv58423) Units=km Length=0.02039 bus1=p5udm33786.1.2 bus2=p5ulv58423.1.2 switch=n enabled=y phases=2 Linecode=1P_UG_AL_1/0_Brenau_0_416_0_2_2_2_2

New Line.l(r:p5udm33786-p5udt11952lv) Units=km Length=0.00940343 bus1=p5udt11952lv.1.2 bus2=p5udm33786.1.2 switch=n enabled=y phases=2 Linecode=1P_UG_AL_4/0_Sweetbriar_0_416_0_2_2_2_2

New Line.l(r:p5udm33788-p5ulv55038) Units=km Length=0.0159857 bus1=p5udm33788.1.2 bus2=p5ulv55038.1.2 switch=n enabled=y phases=2 Linecode=1P_UG_AL_1/0_Brenau_0_416_0_2_2_2_2

New Line.l(r:p5udm33788-p5ulv56764) Units=km Length=0.0225568 bus1=p5udm33788.1.2 bus2=p5ulv56764.1.2 switch=n enabled=y phases=2 Linecode=1P_UG_AL_1/0_Brenau_0_416_0_2_2_2_2

New Line.l(r:p5udm33788-p5udt11952lv) Units=km Length=0.0188164 bus1=p5udt11952lv.1.2 bus2=p5udm33788.1.2 switch=n enabled=y phases=2 Linecode=1P_UG_AL_4/0_Sweetbriar_0_416_0_2_2_2_2

New Line.l(r:p5udt11953lv-p5ulv23794) Units=km Length=0.0173165 bus1=p5udt11953lv.1.2 bus2=p5ulv23794.1.2 switch=n enabled=y phases=2 Linecode=1P_UG_AL_1/0_Brenau_0_416_0_2_2_2_2

New Line.l(r:p5udt11953lv-p5ulv41588) Units=km Length=0.0136409 bus1=p5udt11953lv.1.2 bus2=p5ulv41588.1.2 switch=n enabled=y phases=2 Linecode=1P_UG_AL_1/0_Brenau_0_416_0_2_2_2_2

New Line.l(r:p5udm33792-p5ulv23795) Units=km Length=0.0190189 bus1=p5udm33792.1.2 bus2=p5ulv23795.1.2 switch=n enabled=y phases=2 Linecode=1P_UG_AL_1/0_Brenau_0_416_0_2_2_2_2

New Line.l(r:p5udm33792-p5udt11953lv) Units=km Length=0.015443300000000002 bus1=p5udt11953lv.1.2 bus2=p5udm33792.1.2 switch=n enabled=y phases=2 Linecode=1P_UG_AL_1/0_Brenau_0_416_0_2_2_2_2

New Line.l(r:p5udm33799-p5ulv23797) Units=km Length=0.0162111 bus1=p5udm33799.1.2 bus2=p5ulv23797.1.2 switch=n enabled=y phases=2 Linecode=1P_UG_AL_1/0_Brenau_0_416_0_2_2_2_2

New Line.l(r:p5udm33799-p5ulv42692) Units=km Length=0.0260963 bus1=p5udm33799.1.2 bus2=p5ulv42692.1.2 switch=n enabled=y phases=2 Linecode=1P_UG_AL_1/0_Brenau_0_416_0_2_2_2_2

New Line.l(r:p5udm33800-p5ulv39394) Units=km Length=0.0147482 bus1=p5udm33800.1.2 bus2=p5ulv39394.1.2 switch=n enabled=y phases=2 Linecode=1P_UG_AL_1/0_Brenau_0_416_0_2_2_2_2

New Line.l(r:p5udm33799-p5udm33800) Units=km Length=0.0246065 bus1=p5udm33799.1.2 bus2=p5udm33800.1.2 switch=n enabled=y phases=2 Linecode=1P_UG_AL_1/0_Brenau_0_416_0_2_2_2_2

New Line.l(r:p5udm33799-p5udt11955lv) Units=km Length=0.0153133 bus1=p5udt11955lv.1.2 bus2=p5udm33799.1.2 switch=n enabled=y phases=2 Linecode=1P_UG_AL_4/0_Sweetbriar_0_416_0_2_2_2_2

New Line.l(r:p5udm33803-p5ulv63542) Units=km Length=0.015034 bus1=p5udm33803.1.2 bus2=p5ulv63542.1.2 switch=n enabled=y phases=2 Linecode=1P_UG_AL_1/0_Brenau_0_416_0_2_2_2_2

New Line.l(r:p5udm33803-p5ulv67943) Units=km Length=0.0150442 bus1=p5udm33803.1.2 bus2=p5ulv67943.1.2 switch=n enabled=y phases=2 Linecode=1P_UG_AL_1/0_Brenau_0_416_0_2_2_2_2

New Line.l(r:p5udm33802-p5ulv52270) Units=km Length=0.0230386 bus1=p5udm33802.1.2 bus2=p5ulv52270.1.2 switch=n enabled=y phases=2 Linecode=1P_UG_AL_1/0_Brenau_0_416_0_2_2_2_2

New Line.l(r:p5udm33802-p5udm33803) Units=km Length=0.0231361 bus1=p5udm33803.1.2 bus2=p5udm33802.1.2 switch=n enabled=y phases=2 Linecode=1P_UG_AL_1/0_Brenau_0_416_0_2_2_2_2

New Line.l(r:p5udm33803-p5udt11955lv) Units=km Length=0.014445900000000001 bus1=p5udt11955lv.1.2 bus2=p5udm33803.1.2 switch=n enabled=y phases=2 Linecode=1P_UG_AL_4/0_Sweetbriar_0_416_0_2_2_2_2

New Line.l(r:p5udt11956lv-p5ulv23798) Units=km Length=0.0141189 bus1=p5udt11956lv.1.2 bus2=p5ulv23798.1.2 switch=n enabled=y phases=2 Linecode=1P_UG_AL_1/0_Brenau_0_416_0_2_2_2_2

New Line.l(r:p5udm33806-p5ulv52271) Units=km Length=0.0182369 bus1=p5udm33806.1.2 bus2=p5ulv52271.1.2 switch=n enabled=y phases=2 Linecode=1P_UG_AL_1/0_Brenau_0_416_0_2_2_2_2

New Line.l(r:p5udm33806-p5udt11956lv) Units=km Length=0.015954 bus1=p5udt11956lv.1.2 bus2=p5udm33806.1.2 switch=n enabled=y phases=2 Linecode=1P_UG_AL_1/0_Brenau_0_416_0_2_2_2_2

New Line.l(r:p5udm33807-p5ulv72973) Units=km Length=0.02055 bus1=p5udm33807.1.2 bus2=p5ulv72973.1.2 switch=n enabled=y phases=2 Linecode=1P_UG_AL_1/0_Brenau_0_416_0_2_2_2_2

New Line.l(r:p5udm33807-p5udt11956lv) Units=km Length=0.00839686 bus1=p5udt11956lv.1.2 bus2=p5udm33807.1.2 switch=n enabled=y phases=2 Linecode=1P_UG_AL_1/0_Brenau_0_416_0_2_2_2_2

New Line.l(r:p5udt11957lv-p5ulv23799) Units=km Length=0.0158415 bus1=p5udt11957lv.1.2 bus2=p5ulv23799.1.2 switch=n enabled=y phases=2 Linecode=1P_UG_AL_1/0_Brenau_0_416_0_2_2_2_2

New Line.l(r:p5udt11958lv-p5ulv23800) Units=km Length=0.0165322 bus1=p5udt11958lv.1.2 bus2=p5ulv23800.1.2 switch=n enabled=y phases=2 Linecode=1P_UG_AL_1/0_Brenau_0_416_0_2_2_2_2

New Line.l(r:p5udt12018lv-p5ulv23869) Units=km Length=0.0057928 bus1=p5udt12018lv.1.2 bus2=p5ulv23869.1.2 switch=n enabled=y phases=2 Linecode=1P_OH_AL_2/0_Rucina_0_416_0_2_2_2_2

New Line.l(r:p5udt12423lv-p5ulv24368) Units=km Length=0.0334683 bus1=p5udt12423lv.1.2 bus2=p5ulv24368.1.2 switch=n enabled=y phases=2 Linecode=1P_OH_AL_4/0_Zuzara_0_416_0_2_2_2_2

New Line.l(r:p5udm35194-p5ulv34899) Units=km Length=0.0314322 bus1=p5udm35194.1.2 bus2=p5ulv34899.1.2 switch=n enabled=y phases=2 Linecode=1P_OH_AL_4/0_Zuzara_0_416_0_2_2_2_2

New Line.l(r:p5udm35194-p5udt12423lv) Units=km Length=0.0168143 bus1=p5udt12423lv.1.2 bus2=p5udm35194.1.2 switch=n enabled=y phases=2 Linecode=1P_OH_AL_2/0_Rucina_0_416_0_2_2_2_2

New Line.l(r:p5udm35195-p5ulv52804) Units=km Length=0.0229002 bus1=p5udm35195.1.2 bus2=p5ulv52804.1.2 switch=n enabled=y phases=2 Linecode=1P_OH_AL_2/0_Rucina_0_416_0_2_2_2_2

New Line.l(r:p5udm35195-p5udt12423lv) Units=km Length=0.0168143 bus1=p5udt12423lv.1.2 bus2=p5udm35195.1.2 switch=n enabled=y phases=2 Linecode=1P_OH_AL_2/0_Rucina_0_416_0_2_2_2_2

New Line.l(r:p5udm35197-p5ulv58424) Units=km Length=0.0242401 bus1=p5udm35197.1.2 bus2=p5ulv58424.1.2 switch=n enabled=y phases=2 Linecode=1P_UG_AL_1/0_Brenau_0_416_0_2_2_2_2

New Line.l(r:p5udm35196-p5ulv24369) Units=km Length=0.0180219 bus1=p5udm35196.1.2 bus2=p5ulv24369.1.2 switch=n enabled=y phases=2 Linecode=1P_UG_AL_1/0_Brenau_0_416_0_2_2_2_2
