New Line.l(r:p1udm415-p1ulv132) Units=km Length=0.0128724 bus1=p1udm415.1.2 bus2=p1ulv132.1.2 switch=n enabled=y phases=2 Linecode=1P_UG_AL_1/0_Brenau_0_416_0_2_2_2_2

New Line.l(r:p1udm415-p1ulv15190) Units=km Length=0.018689600000000004 bus1=p1udm415.1.2 bus2=p1ulv15190.1.2 switch=n enabled=y phases=2 Linecode=1P_UG_AL_1/0_Brenau_0_416_0_2_2_2_2

New Line.l(r:p1udm415-p1udt131lv) Units=km Length=0.01878 bus1=p1udt131lv.1.2 bus2=p1udm415.1.2 switch=n enabled=y phases=2 Linecode=1P_UG_AL_4/0_Sweetbriar_0_416_0_2_2_2_2

New Line.l(r:p1udm419-p1ulv30487) Units=km Length=0.0187457 bus1=p1udm419.1.2 bus2=p1ulv30487.1.2 switch=n enabled=y phases=2 Linecode=1P_UG_AL_1/0_Brenau_0_416_0_2_2_2_2

New Line.l(r:p1udm416-p1ulv2071) Units=km Length=0.0144405 bus1=p1udm416.1.2 bus2=p1ulv2071.1.2 switch=n enabled=y phases=2 Linecode=1P_UG_AL_1/0_Brenau_0_416_0_2_2_2_2

New Line.l(r:p1udm416-p1udm419) Units=km Length=0.00996547 bus1=p1udm419.1.2 bus2=p1udm416.1.2 switch=n enabled=y phases=2 Linecode=1P_UG_AL_1/0_Brenau_0_416_0_2_2_2_2

New Line.l(r:p1udm418-p1ulv23532) Units=km Length=0.0176345 bus1=p1udm418.1.2 bus2=p1ulv23532.1.2 switch=n enabled=y phases=2 Linecode=1P_UG_AL_1/0_Brenau_0_416_0_2_2_2_2

New Line.l(r:p1udm418-p1udm419) Units=km Length=0.017720600000000003 bus1=p1udm419.1.2 bus2=p1udm418.1.2 switch=n enabled=y phases=2 Linecode=1P_UG_AL_1/0_Brenau_0_416_0_2_2_2_2

New Line.l(r:p1udm419-p1udt131lv) Units=km Length=0.00939571 bus1=p1udt131lv.1.2 bus2=p1udm419.1.2 switch=n enabled=y phases=2 Linecode=1P_UG_AL_4/0_Sweetbriar_0_416_0_2_2_2_2

New Line.l(r:p1udt132lv-p1ulv133) Units=km Length=0.0222961 bus1=p1udt132lv.1.2 bus2=p1ulv133.1.2 switch=n enabled=y phases=2 Linecode=1P_UG_AL_1/0_Brenau_0_416_0_2_2_2_2

New Line.l(r:p1udt132lv-p1ulv45081) Units=km Length=0.023625500000000004 bus1=p1udt132lv.1.2 bus2=p1ulv45081.1.2 switch=n enabled=y phases=2 Linecode=1P_UG_AL_1/0_Brenau_0_416_0_2_2_2_2

New Line.l(r:p1udt132lv-p1ulv45721) Units=km Length=0.0224237 bus1=p1udt132lv.1.2 bus2=p1ulv45721.1.2 switch=n enabled=y phases=2 Linecode=1P_UG_AL_1/0_Brenau_0_416_0_2_2_2_2

New Line.l(r:p1udm432-p1ulv137) Units=km Length=0.0205642 bus1=p1udm432.1.2 bus2=p1ulv137.1.2 switch=n enabled=y phases=2 Linecode=1P_UG_AL_1/0_Brenau_0_416_0_2_2_2_2

New Line.l(r:p1udm432-p1ulv42519) Units=km Length=0.0205604 bus1=p1udm432.1.2 bus2=p1ulv42519.1.2 switch=n enabled=y phases=2 Linecode=1P_UG_AL_1/0_Brenau_0_416_0_2_2_2_2

New Line.l(r:p1udm432-p1udt136lv) Units=km Length=0.00978499 bus1=p1udt136lv.1.2 bus2=p1udm432.1.2 switch=n enabled=y phases=2 Linecode=1P_UG_AL_4/0_Sweetbriar_0_416_0_2_2_2_2

New Line.l(r:p1udm434-p1ulv49439) Units=km Length=0.021331300000000004 bus1=p1udm434.1.2 bus2=p1ulv49439.1.2 switch=n enabled=y phases=2 Linecode=1P_UG_AL_1/0_Brenau_0_416_0_2_2_2_2

New Line.l(r:p1udm434-p1udt136lv) Units=km Length=0.00977669 bus1=p1udt136lv.1.2 bus2=p1udm434.1.2 switch=n enabled=y phases=2 Linecode=1P_UG_AL_1/0_Brenau_0_416_0_2_2_2_2

New Line.l(r:p1udt141lv-p1ulv142) Units=km Length=0.0145385 bus1=p1udt141lv.1.2 bus2=p1ulv142.1.2 switch=n enabled=y phases=2 Linecode=1P_UG_AL_1/0_Brenau_0_416_0_2_2_2_2

New Line.l(r:p1udm448-p1ulv20355) Units=km Length=0.0165913 bus1=p1udm448.1.2 bus2=p1ulv20355.1.2 switch=n enabled=y phases=2 Linecode=1P_UG_AL_1/0_Brenau_0_416_0_2_2_2_2

New Line.l(r:p1udm448-p1ulv51916) Units=km Length=0.0155994 bus1=p1udm448.1.2 bus2=p1ulv51916.1.2 switch=n enabled=y phases=2 Linecode=1P_UG_AL_1/0_Brenau_0_416_0_2_2_2_2

New Line.l(r:p1udm448-p1udt141lv) Units=km Length=0.015104 bus1=p1udt141lv.1.2 bus2=p1udm448.1.2 switch=n enabled=y phases=2 Linecode=1P_UG_AL_4/0_Sweetbriar_0_416_0_2_2_2_2

New Line.l(r:p1udm449-p1ulv37507) Units=km Length=0.0148856 bus1=p1udm449.1.2 bus2=p1ulv37507.1.2 switch=n enabled=y phases=2 Linecode=1P_UG_AL_1/0_Brenau_0_416_0_2_2_2_2

New Line.l(r:p1udm449-p1udt141lv) Units=km Length=0.0247539 bus1=p1udt141lv.1.2 bus2=p1udm449.1.2 switch=n enabled=y phases=2 Linecode=1P_UG_AL_1/0_Brenau_0_416_0_2_2_2_2

New Line.l(r:p1udt344lv-p1ulv14176) Units=km Length=0.0161688 bus1=p1udt344lv.1.2 bus2=p1ulv14176.1.2 switch=n enabled=y phases=2 Linecode=1P_UG_AL_1/0_Brenau_0_416_0_2_2_2_2

New Line.l(r:p1udm1219-p1ulv347) Units=km Length=0.0133979 bus1=p1udm1219.1.2 bus2=p1ulv347.1.2 switch=n enabled=y phases=2 Linecode=1P_UG_AL_1/0_Brenau_0_416_0_2_2_2_2

New Line.l(r:p1udm1222-p1ulv27581) Units=km Length=0.0151848 bus1=p1udm1222.1.2 bus2=p1ulv27581.1.2 switch=n enabled=y phases=2 Linecode=1P_UG_AL_1/0_Brenau_0_416_0_2_2_2_2

New Line.l(r:p1udm1219-p1udm1222) Units=km Length=0.0345467 bus1=p1udm1219.1.2 bus2=p1udm1222.1.2 switch=n enabled=y phases=2 Linecode=1P_UG_AL_1/0_Brenau_0_416_0_2_2_2_2

New Line.l(r:p1udm1219-p1udt344lv) Units=km Length=0.0162921 bus1=p1udt344lv.1.2 bus2=p1udm1219.1.2 switch=n enabled=y phases=2 Linecode=1P_UG_AL_4/0_Sweetbriar_0_416_0_2_2_2_2

New Line.l(r:p1udm1223-p1ulv50235) Units=km Length=0.0143504 bus1=p1udm1223.1.2 bus2=p1ulv50235.1.2 switch=n enabled=y phases=2 Linecode=1P_UG_AL_1/0_Brenau_0_416_0_2_2_2_2

New Line.l(r:p1udm1220-p1ulv13545) Units=km Length=0.0132807 bus1=p1udm1220.1.2 bus2=p1ulv13545.1.2 switch=n enabled=y phases=2 Linecode=1P_UG_AL_1/0_Brenau_0_416_0_2_2_2_2

New Line.l(r:p1udm1220-p1udm1223) Units=km Length=0.00855521 bus1=p1udm1223.1.2 bus2=p1udm1220.1.2 switch=n enabled=y phases=2 Linecode=1P_UG_AL_1/0_Brenau_0_416_0_2_2_2_2

New Line.l(r:p1udm1223-p1udt344lv) Units=km Length=0.0163021 bus1=p1udt344lv.1.2 bus2=p1udm1223.1.2 switch=n enabled=y phases=2 Linecode=1P_UG_AL_4/0_Sweetbriar_0_416_0_2_2_2_2

New Line.l(r:p1udt346lv-p1ulv44023) Units=km Length=0.0148572 bus1=p1udt346lv.1.2 bus2=p1ulv44023.1.2 switch=n enabled=y phases=2 Linecode=1P_UG_AL_1/0_Brenau_0_416_0_2_2_2_2

New Line.l(r:p1udm1228-p1ulv349) Units=km Length=0.0178373 bus1=p1udm1228.1.2 bus2=p1ulv349.1.2 switch=n enabled=y phases=2 Linecode=1P_UG_AL_1/0_Brenau_0_416_0_2_2_2_2

New Line.l(r:p1udm1228-p1udt346lv) Units=km Length=0.00979474 bus1=p1udt346lv.1.2 bus2=p1udm1228.1.2 switch=n enabled=y phases=2 Linecode=1P_UG_AL_1/0_Brenau_0_416_0_2_2_2_2

New Line.l(r:p1udt347lv-p1ulv6065) Units=km Length=0.0181098 bus1=p1udt347lv.1.2 bus2=p1ulv6065.1.2 switch=n enabled=y phases=2 Linecode=1P_OH_AL_2/0_Rucina_0_416_0_2_2_2_2

New Line.l(r:p1udm1230-p1ulv350) Units=km Length=0.0193117 bus1=p1udm1230.1.2 bus2=p1ulv350.1.2 switch=n enabled=y phases=2 Linecode=1P_OH_AL_2/0_Rucina_0_416_0_2_2_2_2

New Line.l(r:p1udm1230-p1udt347lv) Units=km Length=0.0191131 bus1=p1udt347lv.1.2 bus2=p1udm1230.1.2 switch=n enabled=y phases=2 Linecode=1P_OH_AL_2/0_Rucina_0_416_0_2_2_2_2

New Line.l(r:p1udt775lv-p1ulv60536) Units=km Length=0.0156636 bus1=p1udt775lv.1.2 bus2=p1ulv60536.1.2 switch=n enabled=y phases=2 Linecode=1P_UG_AL_1/0_Brenau_0_416_0_2_2_2_2

New Line.l(r:p1udm2821-p1ulv785) Units=km Length=0.0153568 bus1=p1udm2821.1.2 bus2=p1ulv785.1.2 switch=n enabled=y phases=2 Linecode=1P_UG_AL_1/0_Brenau_0_416_0_2_2_2_2

New Line.l(r:p1udm2821-p1ulv58693) Units=km Length=0.0130714 bus1=p1udm2821.1.2 bus2=p1ulv58693.1.2 switch=n enabled=y phases=2 Linecode=1P_UG_AL_1/0_Brenau_0_416_0_2_2_2_2

New Line.l(r:p1udm2821-p1udt775lv) Units=km Length=0.0376014 bus1=p1udt775lv.1.2 bus2=p1udm2821.1.2 switch=n enabled=y phases=2 Linecode=1P_UG_AL_4/0_Sweetbriar_0_416_0_2_2_2_2

New Line.l(r:p1udm2822-p1ulv54056) Units=km Length=0.0149625 bus1=p1udm2822.1.2 bus2=p1ulv54056.1.2 switch=n enabled=y phases=2 Linecode=1P_UG_AL_1/0_Brenau_0_416_0_2_2_2_2

New Line.l(r:p1udm2822-p1udt775lv) Units=km Length=0.00935847 bus1=p1udt775lv.1.2 bus2=p1udm2822.1.2 switch=n enabled=y phases=2 Linecode=1P_UG_AL_1/0_Brenau_0_416_0_2_2_2_2

New Line.l(r:p1udt777lv-p1ulv787) Units=km Length=0.0192383 bus1=p1udt777lv.1.2 bus2=p1ulv787.1.2 switch=n enabled=y phases=2 Linecode=1P_UG_AL_1/0_Brenau_0_416_0_2_2_2_2

New Line.l(r:p1udm2829-p1ulv49438) Units=km Length=0.0119137 bus1=p1udm2829.1.2 bus2=p1ulv49438.1.2 switch=n enabled=y phases=2 Linecode=1P_UG_AL_1/0_Brenau_0_416_0_2_2_2_2

New Line.l(r:p1udm2829-p1udt777lv) Units=km Length=0.009870610000000002 bus1=p1udt777lv.1.2 bus2=p1udm2829.1.2 switch=n enabled=y phases=2 Linecode=1P_UG_AL_1/0_Brenau_0_416_0_2_2_2_2

New Line.l(r:p1udm2830-p1ulv55701) Units=km Length=0.0126502 bus1=p1udm2830.1.2 bus2=p1ulv55701.1.2 switch=n enabled=y phases=2 Linecode=1P_UG_AL_1/0_Brenau_0_416_0_2_2_2_2

New Line.l(r:p1udm2830-p1udt777lv) Units=km Length=0.00986061 bus1=p1udt777lv.1.2 bus2=p1udm2830.1.2 switch=n enabled=y phases=2 Linecode=1P_UG_AL_1/0_Brenau_0_416_0_2_2_2_2

New Line.l(r:p1udt778lv-p1ulv788) Units=km Length=0.0207319 bus1=p1udt778lv.1.2 bus2=p1ulv788.1.2 switch=n enabled=y phases=2 Linecode=1P_UG_AL_1/0_Brenau_0_416_0_2_2_2_2

New Line.l(r:p1udt778lv-p1ulv10221) Units=km Length=0.020213700000000005 bus1=p1udt778lv.1.2 bus2=p1ulv10221.1.2 switch=n enabled=y phases=2 Linecode=1P_UG_AL_1/0_Brenau_0_416_0_2_2_2_2

New Line.l(r:p1udm2833-p1ulv19726) Units=km Length=0.0221797 bus1=p1udm2833.1.2 bus2=p1ulv19726.1.2 switch=n enabled=y phases=2 Linecode=1P_UG_AL_1/0_Brenau_0_416_0_2_2_2_2

New Line.l(r:p1udm2833-p1udt778lv) Units=km Length=0.0148979 bus1=p1udt778lv.1.2 bus2=p1udm2833.1.2 switch=n enabled=y phases=2 Linecode=1P_UG_AL_1/0_Brenau_0_416_0_2_2_2_2

New Line.l(r:p1udm2834-p1ulv24812) Units=km Length=0.0170343 bus1=p1udm2834.1.2 bus2=p1ulv24812.1.2 switch=n enabled=y phases=2 Linecode=1P_UG_AL_4/0_Sweetbriar_0_416_0_2_2_2_2

New Line.l(r:p1udm2834-p1udt778lv) Units=km Length=0.007458800000000001 bus1=p1udt778lv.1.2 bus2=p1udm2834.1.2 switch=n enabled=y phases=2 Linecode=1P_UG_AL_4/0_Sweetbriar_0_416_0_2_2_2_2

New Line.l(r:p1udm2835-p1ulv789) Units=km Length=0.0287836 bus1=p1udm2835.1.2 bus2=p1ulv789.1.2 switch=n enabled=y phases=2 Linecode=1P_UG_AL_1/0_Brenau_0_416_0_2_2_2_2

New Line.l(r:p1udm2835-p1udt779lv) Units=km Length=0.04594940000000001 bus1=p1udt779lv.1.2 bus2=p1udm2835.1.2 switch=n enabled=y phases=2 Linecode=1P_UG_AL_1/0_Brenau_0_416_0_2_2_2_2

New Line.l(r:p1udm2836-p1ulv18411) Units=km Length=0.0181944 bus1=p1udm2836.1.2 bus2=p1ulv18411.1.2 switch=n enabled=y phases=2 Linecode=1P_UG_AL_1/0_Brenau_0_416_0_2_2_2_2

New Line.l(r:p1udm2837-p1ulv40028) Units=km Length=0.0183014 bus1=p1udm2837.1.2 bus2=p1ulv40028.1.2 switch=n enabled=y phases=2 Linecode=1P_UG_AL_1/0_Brenau_0_416_0_2_2_2_2

New Line.l(r:p1udm2836-p1udm2837) Units=km Length=0.00919444 bus1=p1udm2836.1.2 bus2=p1udm2837.1.2 switch=n enabled=y phases=2 Linecode=1P_UG_AL_1/0_Brenau_0_416_0_2_2_2_2

New Line.l(r:p1udm2836-p1udt779lv) Units=km Length=0.0183782 bus1=p1udt779lv.1.2 bus2=p1udm2836.1.2 switch=n enabled=y phases=2 Linecode=1P_UG_AL_4/0_Sweetbriar_0_416_0_2_2_2_2

New Line.l(r:p1udt781lv-p1ulv791) Units=km Length=0.0166065 bus1=p1udt781lv.1.2 bus2=p1ulv791.1.2 switch=n enabled=y phases=2 Linecode=1P_UG_AL_1/0_Brenau_0_416_0_2_2_2_2

New Line.l(r:p1udt781lv-p1ulv54695) Units=km Length=0.0150828 bus1=p1udt781lv.1.2 bus2=p1ulv54695.1.2 switch=n enabled=y phases=2 Linecode=1P_UG_AL_1/0_Brenau_0_416_0_2_2_2_2

New Line.l(r:p1udm2841-p1ulv9822) Units=km Length=0.0152088 bus1=p1udm2841.1.2 bus2=p1ulv9822.1.2 switch=n enabled=y phases=2 Linecode=1P_UG_AL_4/0_Sweetbriar_0_416_0_2_2_2_2

New Line.l(r:p1udm2841-p1udt781lv) Units=km Length=0.019475800000000005 bus1=p1udt781lv.1.2 bus2=p1udm2841.1.2 switch=n enabled=y phases=2 Linecode=1P_UG_AL_4/0_Sweetbriar_0_416_0_2_2_2_2

New Line.l(r:p1udm2842-p1ulv12733) Units=km Length=0.0170239 bus1=p1udm2842.1.2 bus2=p1ulv12733.1.2 switch=n enabled=y phases=2 Linecode=1P_UG_AL_1/0_Brenau_0_416_0_2_2_2_2

New Line.l(r:p1udm2842-p1udt781lv) Units=km Length=0.009737790000000001 bus1=p1udt781lv.1.2 bus2=p1udm2842.1.2 switch=n enabled=y phases=2 Linecode=1P_UG_AL_1/0_Brenau_0_416_0_2_2_2_2

New Line.l(r:p1udm3446-p1ulv965) Units=km Length=0.0183645 bus1=p1udm3446.1.2 bus2=p1ulv965.1.2 switch=n enabled=y phases=2 Linecode=1P_OH_AL_2/0_Rucina_0_416_0_2_2_2_2

New Line.l(r:p1udm3446-p1udt946lv) Units=km Length=0.0449677 bus1=p1udt946lv.1.2 bus2=p1udm3446.1.2 switch=n enabled=y phases=2 Linecode=1P_OH_AL_4/0_Zuzara_0_416_0_2_2_2_2

New Line.l(r:p1udm3447-p1ulv13541) Units=km Length=0.0138012 bus1=p1udm3447.1.2 bus2=p1ulv13541.1.2 switch=n enabled=y phases=2 Linecode=1P_UG_AL_1/0_Brenau_0_416_0_2_2_2_2

New Line.l(r:p1udm3447-p1ulv63884) Units=km Length=0.0179723 bus1=p1udm3447.1.2 bus2=p1ulv63884.1.2 switch=n enabled=y phases=2 Linecode=1P_UG_AL_1/0_Brenau_0_416_0_2_2_2_2

New Line.l(r:p1udm3447-p1udt946lv) Units=km Length=0.0192189 bus1=p1udt946lv.1.2 bus2=p1udm3447.1.2 switch=n enabled=y phases=2 Linecode=1P_UG_AL_4/0_Sweetbriar_0_416_0_2_2_2_2

New Line.l(r:p1udt950lv-p1ulv39597) Units=km Length=0.0151361 bus1=p1udt950lv.1.2 bus2=p1ulv39597.1.2 switch=n enabled=y phases=2 Linecode=1P_UG_AL_1/0_Brenau_0_416_0_2_2_2_2

New Line.l(r:p1udm3465-p1ulv44018) Units=km Length=0.0154143 bus1=p1udm3465.1.2 bus2=p1ulv44018.1.2 switch=n enabled=y phases=2 Linecode=1P_UG_AL_1/0_Brenau_0_416_0_2_2_2_2

New Line.l(r:p1udm3461-p1ulv969) Units=km Length=0.013889000000000002 bus1=p1udm3461.1.2 bus2=p1ulv969.1.2 switch=n enabled=y phases=2 Linecode=1P_UG_AL_1/0_Brenau_0_416_0_2_2_2_2

New Line.l(r:p1udm3461-p1udm3465) Units=km Length=0.0099025 bus1=p1udm3465.1.2 bus2=p1udm3461.1.2 switch=n enabled=y phases=2 Linecode=1P_UG_AL_1/0_Brenau_0_416_0_2_2_2_2

New Line.l(r:p1udm3465-p1udt950lv) Units=km Length=0.00989615 bus1=p1udt950lv.1.2 bus2=p1udm3465.1.2 switch=n enabled=y phases=2 Linecode=1P_UG_AL_4/0_Sweetbriar_0_416_0_2_2_2_2

New Line.l(r:p1udm3466-p1ulv49599) Units=km Length=0.0164303 bus1=p1udm3466.1.2 bus2=p1ulv49599.1.2 switch=n enabled=y phases=2 Linecode=1P_UG_AL_1/0_Brenau_0_416_0_2_2_2_2

New Line.l(r:p1udm3462-p1ulv6059) Units=km Length=0.016597 bus1=p1udm3462.1.2 bus2=p1ulv6059.1.2 switch=n enabled=y phases=2 Linecode=1P_UG_AL_1/0_Brenau_0_416_0_2_2_2_2

New Line.l(r:p1udm3462-p1ulv42687) Units=km Length=0.0164247 bus1=p1udm3462.1.2 bus2=p1ulv42687.1.2 switch=n enabled=y phases=2 Linecode=1P_UG_AL_1/0_Brenau_0_416_0_2_2_2_2

New Line.l(r:p1udm3462-p1udm3466) Units=km Length=0.00990387 bus1=p1udm3466.1.2 bus2=p1udm3462.1.2 switch=n enabled=y phases=2 Linecode=1P_UG_AL_4/0_Sweetbriar_0_416_0_2_2_2_2

New Line.l(r:p1udm3466-p1udt950lv) Units=km Length=0.0099025 bus1=p1udt950lv.1.2 bus2=p1udm3466.1.2 switch=n enabled=y phases=2 Linecode=1P_UG_AL_4/0_Sweetbriar_0_416_0_2_2_2_2

New Line.l(r:p1udt951lv-p1ulv970) Units=km Length=0.0235721 bus1=p1udt951lv.1.2 bus2=p1ulv970.1.2 switch=n enabled=y phases=2 Linecode=1P_UG_AL_1/0_Brenau_0_416_0_2_2_2_2

New Line.l(r:p1udt951lv-p1ulv2907) Units=km Length=0.023161300000000003 bus1=p1udt951lv.1.2 bus2=p1ulv2907.1.2 switch=n enabled=y phases=2 Linecode=1P_UG_AL_1/0_Brenau_0_416_0_2_2_2_2

New Line.l(r:p1udt951lv-p1ulv4155) Units=km Length=0.024334000000000005 bus1=p1udt951lv.1.2 bus2=p1ulv4155.1.2 switch=n enabled=y phases=2 Linecode=1P_UG_AL_1/0_Brenau_0_416_0_2_2_2_2

New Line.l(r:p1udt952lv-p1ulv43375) Units=km Length=0.016095200000000004 bus1=p1udt952lv.1.2 bus2=p1ulv43375.1.2 switch=n enabled=y phases=2 Linecode=1P_UG_AL_1/0_Brenau_0_416_0_2_2_2_2

New Line.l(r:p1udm3470-p1ulv971) Units=km Length=0.015372 bus1=p1udm3470.1.2 bus2=p1ulv971.1.2 switch=n enabled=y phases=2 Linecode=1P_UG_AL_1/0_Brenau_0_416_0_2_2_2_2

New Line.l(r:p1udm3472-p1ulv41467) Units=km Length=0.0153531 bus1=p1udm3472.1.2 bus2=p1ulv41467.1.2 switch=n enabled=y phases=2 Linecode=1P_UG_AL_1/0_Brenau_0_416_0_2_2_2_2

New Line.l(r:p1udm3470-p1udm3472) Units=km Length=0.00764446 bus1=p1udm3470.1.2 bus2=p1udm3472.1.2 switch=n enabled=y phases=2 Linecode=1P_UG_AL_1/0_Brenau_0_416_0_2_2_2_2

New Line.l(r:p1udm3470-p1udt952lv) Units=km Length=0.0076541 bus1=p1udt952lv.1.2 bus2=p1udm3470.1.2 switch=n enabled=y phases=2 Linecode=1P_UG_AL_4/0_Sweetbriar_0_416_0_2_2_2_2

New Line.l(r:p1udm3471-p1ulv38977) Units=km Length=0.0155318 bus1=p1udm3471.1.2 bus2=p1ulv38977.1.2 switch=n enabled=y phases=2 Linecode=1P_UG_AL_1/0_Brenau_0_416_0_2_2_2_2

New Line.l(r:p1udm3471-p1udt952lv) Units=km Length=0.00764714 bus1=p1udt952lv.1.2 bus2=p1udm3471.1.2 switch=n enabled=y phases=2 Linecode=1P_UG_AL_1/0_Brenau_0_416_0_2_2_2_2

New Line.l(r:p1udm3474-p1ulv972) Units=km Length=0.012455900000000002 bus1=p1udm3474.1.2 bus2=p1ulv972.1.2 switch=n enabled=y phases=2 Linecode=1P_UG_AL_1/0_Brenau_0_416_0_2_2_2_2

New Line.l(r:p1udm3474-p1ulv7965) Units=km Length=0.0188877 bus1=p1udm3474.1.2 bus2=p1ulv7965.1.2 switch=n enabled=y phases=2 Linecode=1P_UG_AL_1/0_Brenau_0_416_0_2_2_2_2

New Line.l(r:p1udm3474-p1udt953lv) Units=km Length=0.00979474 bus1=p1udt953lv.1.2 bus2=p1udm3474.1.2 switch=n enabled=y phases=2 Linecode=1P_UG_AL_4/0_Sweetbriar_0_416_0_2_2_2_2

New Line.l(r:p1udm3476-p1ulv22441) Units=km Length=0.0135992 bus1=p1udm3476.1.2 bus2=p1ulv22441.1.2 switch=n enabled=y phases=2 Linecode=1P_UG_AL_1/0_Brenau_0_416_0_2_2_2_2

New Line.l(r:p1udm3476-p1ulv63891) Units=km Length=0.0182401 bus1=p1udm3476.1.2 bus2=p1ulv63891.1.2 switch=n enabled=y phases=2 Linecode=1P_UG_AL_1/0_Brenau_0_416_0_2_2_2_2

New Line.l(r:p1udm3476-p1udt953lv) Units=km Length=0.00980326 bus1=p1udt953lv.1.2 bus2=p1udm3476.1.2 switch=n enabled=y phases=2 Linecode=1P_UG_AL_4/0_Sweetbriar_0_416_0_2_2_2_2

New Line.l(r:p1udt954lv-p1ulv48408) Units=km Length=0.018528 bus1=p1udt954lv.1.2 bus2=p1ulv48408.1.2 switch=n enabled=y phases=2 Linecode=1P_OH_AL_2/0_Rucina_0_416_0_2_2_2_2

New Line.l(r:p1udt954lv-p1ulv65159) Units=km Length=0.020362400000000003 bus1=p1udt954lv.1.2 bus2=p1ulv65159.1.2 switch=n enabled=y phases=2 Linecode=1P_OH_AL_2/0_Rucina_0_416_0_2_2_2_2

New Line.l(r:p1udm3478-p1ulv973) Units=km Length=0.0189092 bus1=p1udm3478.1.2 bus2=p1ulv973.1.2 switch=n enabled=y phases=2 Linecode=1P_OH_AL_2/0_Rucina_0_416_0_2_2_2_2

New Line.l(r:p1udm3478-p1ulv64536) Units=km Length=0.0191269 bus1=p1udm3478.1.2 bus2=p1ulv64536.1.2 switch=n enabled=y phases=2 Linecode=1P_OH_AL_2/0_Rucina_0_416_0_2_2_2_2

New Line.l(r:p1udm3478-p1udt954lv) Units=km Length=0.0173461 bus1=p1udt954lv.1.2 bus2=p1udm3478.1.2 switch=n enabled=y phases=2 Linecode=1P_OH_AL_2/0_Rucina_0_416_0_2_2_2_2

New Line.l(r:p1udm3483-p1ulv15397) Units=km Length=0.0165628 bus1=p1udm3483.1.2 bus2=p1ulv15397.1.2 switch=n enabled=y phases=2 Linecode=1P_UG_AL_1/0_Brenau_0_416_0_2_2_2_2

New Line.l(r:p1udm3482-p1ulv974) Units=km Length=0.0163191 bus1=p1udm3482.1.2 bus2=p1ulv974.1.2 switch=n enabled=y phases=2 Linecode=1P_UG_AL_1/0_Brenau_0_416_0_2_2_2_2

New Line.l(r:p1udm3482-p1ulv50884) Units=km Length=0.011967 bus1=p1udm3482.1.2 bus2=p1ulv50884.1.2 switch=n enabled=y phases=2 Linecode=1P_UG_AL_1/0_Brenau_0_416_0_2_2_2_2

New Line.l(r:p1udm3482-p1udm3483) Units=km Length=0.009131590000000002 bus1=p1udm3483.1.2 bus2=p1udm3482.1.2 switch=n enabled=y phases=2 Linecode=1P_UG_AL_4/0_Sweetbriar_0_416_0_2_2_2_2

New Line.l(r:p1udm3483-p1udt955lv) Units=km Length=0.009131590000000002 bus1=p1udt955lv.1.2 bus2=p1udm3483.1.2 switch=n enabled=y phases=2 Linecode=1P_UG_AL_4/0_Sweetbriar_0_416_0_2_2_2_2

New Line.l(r:p1udm3484-p1ulv35851) Units=km Length=0.0175218 bus1=p1udm3484.1.2 bus2=p1ulv35851.1.2 switch=n enabled=y phases=2 Linecode=1P_UG_AL_1/0_Brenau_0_416_0_2_2_2_2

New Line.l(r:p1udm3484-p1udt955lv) Units=km Length=0.0321503 bus1=p1udt955lv.1.2 bus2=p1udm3484.1.2 switch=n enabled=y phases=2 Linecode=1P_UG_AL_1/0_Brenau_0_416_0_2_2_2_2

New Line.l(r:p1udt956lv-p1ulv57114) Units=km Length=0.014855100000000001 bus1=p1udt956lv.1.2 bus2=p1ulv57114.1.2 switch=n enabled=y phases=2 Linecode=1P_UG_AL_1/0_Brenau_0_416_0_2_2_2_2

New Line.l(r:p1udm3487-p1ulv6064) Units=km Length=0.0144987 bus1=p1udm3487.1.2 bus2=p1ulv6064.1.2 switch=n enabled=y phases=2 Linecode=1P_UG_AL_1/0_Brenau_0_416_0_2_2_2_2

New Line.l(r:p1udm3486-p1ulv975) Units=km Length=0.0147704 bus1=p1udm3486.1.2 bus2=p1ulv975.1.2 switch=n enabled=y phases=2 Linecode=1P_UG_AL_1/0_Brenau_0_416_0_2_2_2_2

New Line.l(r:p1udm3486-p1ulv17320) Units=km Length=0.0170873 bus1=p1udm3486.1.2 bus2=p1ulv17320.1.2 switch=n enabled=y phases=2 Linecode=1P_UG_AL_1/0_Brenau_0_416_0_2_2_2_2

New Line.l(r:p1udm3486-p1udm3487) Units=km Length=0.0098237 bus1=p1udm3487.1.2 bus2=p1udm3486.1.2 switch=n enabled=y phases=2 Linecode=1P_UG_AL_4/0_Sweetbriar_0_416_0_2_2_2_2

New Line.l(r:p1udm3487-p1udt956lv) Units=km Length=0.009814930000000001 bus1=p1udt956lv.1.2 bus2=p1udm3487.1.2 switch=n enabled=y phases=2 Linecode=1P_UG_AL_4/0_Sweetbriar_0_416_0_2_2_2_2

New Line.l(r:p1udm3488-p1ulv13549) Units=km Length=0.0166113 bus1=p1udm3488.1.2 bus2=p1ulv13549.1.2 switch=n enabled=y phases=2 Linecode=1P_UG_AL_1/0_Brenau_0_416_0_2_2_2_2

New Line.l(r:p1udm3490-p1ulv26939) Units=km Length=0.0163094 bus1=p1udm3490.1.2 bus2=p1ulv26939.1.2 switch=n enabled=y phases=2 Linecode=1P_UG_AL_1/0_Brenau_0_416_0_2_2_2_2

New Line.l(r:p1udm3488-p1udm3490) Units=km Length=0.009814930000000001 bus1=p1udm3488.1.2 bus2=p1udm3490.1.2 switch=n enabled=y phases=2 Linecode=1P_UG_AL_1/0_Brenau_0_416_0_2_2_2_2

New Line.l(r:p1udm3488-p1udt956lv) Units=km Length=0.0098237 bus1=p1udt956lv.1.2 bus2=p1udm3488.1.2 switch=n enabled=y phases=2 Linecode=1P_UG_AL_4/0_Sweetbriar_0_416_0_2_2_2_2

New Line.l(r:p1udt1365lv-p1ulv1410) Units=km Length=0.018129 bus1=p1udt1365lv.1.2 bus2=p1ulv1410.1.2 switch=n enabled=y phases=2 Linecode=1P_UG_AL_1/0_Brenau_0_416_0_2_2_2_2

New Line.l(r:p1udt1365lv-p1ulv31768) Units=km Length=0.0182184 bus1=p1udt1365lv.1.2 bus2=p1ulv31768.1.2 switch=n enabled=y phases=2 Linecode=1P_UG_AL_1/0_Brenau_0_416_0_2_2_2_2

New Line.l(r:p1udm4980-p1ulv4569) Units=km Length=0.0130139 bus1=p1udm4980.1.2 bus2=p1ulv4569.1.2 switch=n enabled=y phases=2 Linecode=1P_UG_AL_1/0_Brenau_0_416_0_2_2_2_2

New Line.l(r:p1udm4984-p1ulv51906) Units=km Length=0.0181694 bus1=p1udm4984.1.2 bus2=p1ulv51906.1.2 switch=n enabled=y phases=2 Linecode=1P_UG_AL_1/0_Brenau_0_416_0_2_2_2_2

New Line.l(r:p1udm4980-p1udm4984) Units=km Length=0.009702 bus1=p1udm4980.1.2 bus2=p1udm4984.1.2 switch=n enabled=y phases=2 Linecode=1P_UG_AL_1/0_Brenau_0_416_0_2_2_2_2

New Line.l(r:p1udm4980-p1udt1365lv) Units=km Length=0.00969332 bus1=p1udt1365lv.1.2 bus2=p1udm4980.1.2 switch=n enabled=y phases=2 Linecode=1P_UG_AL_4/0_Sweetbriar_0_416_0_2_2_2_2

New Line.l(r:p1udm4981-p1ulv13985) Units=km Length=0.013037000000000002 bus1=p1udm4981.1.2 bus2=p1ulv13985.1.2 switch=n enabled=y phases=2 Linecode=1P_UG_AL_1/0_Brenau_0_416_0_2_2_2_2

New Line.l(r:p1udm4982-p1ulv17131) Units=km Length=0.0128597 bus1=p1udm4982.1.2 bus2=p1ulv17131.1.2 switch=n enabled=y phases=2 Linecode=1P_UG_AL_1/0_Brenau_0_416_0_2_2_2_2

New Line.l(r:p1udm4981-p1udm4982) Units=km Length=0.00969332 bus1=p1udm4981.1.2 bus2=p1udm4982.1.2 switch=n enabled=y phases=2 Linecode=1P_UG_AL_1/0_Brenau_0_416_0_2_2_2_2

New Line.l(r:p1udm4981-p1udt1365lv) Units=km Length=0.009697040000000002 bus1=p1udt1365lv.1.2 bus2=p1udm4981.1.2 switch=n enabled=y phases=2 Linecode=1P_UG_AL_4/0_Sweetbriar_0_416_0_2_2_2_2

New Line.l(r:p1udt1366lv-p1ulv1411) Units=km Length=0.0115288 bus1=p1udt1366lv.1.2 bus2=p1ulv1411.1.2 switch=n enabled=y phases=2 Linecode=1P_UG_AL_1/0_Brenau_0_416_0_2_2_2_2

New Line.l(r:p1udt1366lv-p1ulv46978) Units=km Length=0.0160911 bus1=p1udt1366lv.1.2 bus2=p1ulv46978.1.2 switch=n enabled=y phases=2 Linecode=1P_UG_AL_1/0_Brenau_0_416_0_2_2_2_2

New Line.l(r:p1udt1366lv-p1ulv49437) Units=km Length=0.0163635 bus1=p1udt1366lv.1.2 bus2=p1ulv49437.1.2 switch=n enabled=y phases=2 Linecode=1P_UG_AL_1/0_Brenau_0_416_0_2_2_2_2

New Line.l(r:p1udm4986-p1ulv3984) Units=km Length=0.0154274 bus1=p1udm4986.1.2 bus2=p1ulv3984.1.2 switch=n enabled=y phases=2 Linecode=1P_UG_AL_1/0_Brenau_0_416_0_2_2_2_2

New Line.l(r:p1udm4986-p1udt1366lv) Units=km Length=0.019223 bus1=p1udt1366lv.1.2 bus2=p1udm4986.1.2 switch=n enabled=y phases=2 Linecode=1P_UG_AL_1/0_Brenau_0_416_0_2_2_2_2

New Line.l(r:p1udm4988-p1ulv47582) Units=km Length=0.0154501 bus1=p1udm4988.1.2 bus2=p1ulv47582.1.2 switch=n enabled=y phases=2 Linecode=1P_UG_AL_1/0_Brenau_0_416_0_2_2_2_2

New Line.l(r:p1udm4988-p1udt1366lv) Units=km Length=0.00961768 bus1=p1udt1366lv.1.2 bus2=p1udm4988.1.2 switch=n enabled=y phases=2 Linecode=1P_UG_AL_1/0_Brenau_0_416_0_2_2_2_2

New Line.l(r:p1udt1367lv-p1ulv1412) Units=km Length=0.015352900000000001 bus1=p1udt1367lv.1.2 bus2=p1ulv1412.1.2 switch=n enabled=y phases=2 Linecode=1P_UG_AL_1/0_Brenau_0_416_0_2_2_2_2

New Line.l(r:p1udm4991-p1ulv17140) Units=km Length=0.0151133 bus1=p1udm4991.1.2 bus2=p1ulv17140.1.2 switch=n enabled=y phases=2 Linecode=1P_UG_AL_1/0_Brenau_0_416_0_2_2_2_2

New Line.l(r:p1udm4991-p1udt1367lv) Units=km Length=0.008792 bus1=p1udt1367lv.1.2 bus2=p1udm4991.1.2 switch=n enabled=y phases=2 Linecode=1P_UG_AL_1/0_Brenau_0_416_0_2_2_2_2

New Line.l(r:p1udm4992-p1ulv54456) Units=km Length=0.015582 bus1=p1udm4992.1.2 bus2=p1ulv54456.1.2 switch=n enabled=y phases=2 Linecode=1P_UG_AL_1/0_Brenau_0_416_0_2_2_2_2

New Line.l(r:p1udm4992-p1udt1367lv) Units=km Length=0.0088 bus1=p1udt1367lv.1.2 bus2=p1udm4992.1.2 switch=n enabled=y phases=2 Linecode=1P_UG_AL_1/0_Brenau_0_416_0_2_2_2_2

New Line.l(r:p1udt1370lv-p1ulv1415) Units=km Length=0.0158139 bus1=p1udt1370lv.1.2 bus2=p1ulv1415.1.2 switch=n enabled=y phases=2 Linecode=1P_UG_AL_4/0_Sweetbriar_0_416_0_2_2_2_2

New Line.l(r:p1udm5004-p1ulv10856) Units=km Length=0.0141062 bus1=p1udm5004.1.2 bus2=p1ulv10856.1.2 switch=n enabled=y phases=2 Linecode=1P_UG_AL_1/0_Brenau_0_416_0_2_2_2_2

New Line.l(r:p1udm5004-p1udt1370lv) Units=km Length=0.009842 bus1=p1udt1370lv.1.2 bus2=p1udm5004.1.2 switch=n enabled=y phases=2 Linecode=1P_UG_AL_1/0_Brenau_0_416_0_2_2_2_2

New Line.l(r:p1udm5005-p1ulv52570) Units=km Length=0.0139622 bus1=p1udm5005.1.2 bus2=p1ulv52570.1.2 switch=n enabled=y phases=2 Linecode=1P_UG_AL_1/0_Brenau_0_416_0_2_2_2_2

New Line.l(r:p1udm5005-p1udt1370lv) Units=km Length=0.009276990000000002 bus1=p1udt1370lv.1.2 bus2=p1udm5005.1.2 switch=n enabled=y phases=2 Linecode=1P_UG_AL_1/0_Brenau_0_416_0_2_2_2_2

New Line.l(r:p1udt1587lv-p1ulv1652) Units=km Length=0.022876 bus1=p1udt1587lv.1.2 bus2=p1ulv1652.1.2 switch=n enabled=y phases=2 Linecode=1P_UG_AL_1/0_Brenau_0_416_0_2_2_2_2

New Line.l(r:p1udt1587lv-p1ulv9815) Units=km Length=0.0232782 bus1=p1udt1587lv.1.2 bus2=p1ulv9815.1.2 switch=n enabled=y phases=2 Linecode=1P_UG_AL_1/0_Brenau_0_416_0_2_2_2_2

New Line.l(r:p1udt1587lv-p1ulv58883) Units=km Length=0.023848100000000004 bus1=p1udt1587lv.1.2 bus2=p1ulv58883.1.2 switch=n enabled=y phases=2 Linecode=1P_UG_AL_1/0_Brenau_0_416_0_2_2_2_2

New Line.l(r:p1udt1587lv-p1ulv62637) Units=km Length=0.022642200000000005 bus1=p1udt1587lv.1.2 bus2=p1ulv62637.1.2 switch=n enabled=y phases=2 Linecode=1P_UG_AL_1/0_Brenau_0_416_0_2_2_2_2

New Line.l(r:p1udt1589lv-p1ulv37700) Units=km Length=0.0138074 bus1=p1udt1589lv.1.2 bus2=p1ulv37700.1.2 switch=n enabled=y phases=2 Linecode=1P_UG_AL_1/0_Brenau_0_416_0_2_2_2_2

New Line.l(r:p1udm5816-p1ulv1654) Units=km Length=0.0168496 bus1=p1udm5816.1.2 bus2=p1ulv1654.1.2 switch=n enabled=y phases=2 Linecode=1P_UG_AL_1/0_Brenau_0_416_0_2_2_2_2

New Line.l(r:p1udm5819-p1ulv60107) Units=km Length=0.015512000000000001 bus1=p1udm5819.1.2 bus2=p1ulv60107.1.2 switch=n enabled=y phases=2 Linecode=1P_UG_AL_1/0_Brenau_0_416_0_2_2_2_2

New Line.l(r:p1udm5816-p1udm5819) Units=km Length=0.00962549 bus1=p1udm5816.1.2 bus2=p1udm5819.1.2 switch=n enabled=y phases=2 Linecode=1P_UG_AL_1/0_Brenau_0_416_0_2_2_2_2

New Line.l(r:p1udm5816-p1udt1589lv) Units=km Length=0.00961892 bus1=p1udt1589lv.1.2 bus2=p1udm5816.1.2 switch=n enabled=y phases=2 Linecode=1P_UG_AL_4/0_Sweetbriar_0_416_0_2_2_2_2

New Line.l(r:p1udm5817-p1ulv14788) Units=km Length=0.0138807 bus1=p1udm5817.1.2 bus2=p1ulv14788.1.2 switch=n enabled=y phases=2 Linecode=1P_UG_AL_1/0_Brenau_0_416_0_2_2_2_2

New Line.l(r:p1udm5820-p1ulv63887) Units=km Length=0.013800400000000003 bus1=p1udm5820.1.2 bus2=p1ulv63887.1.2 switch=n enabled=y phases=2 Linecode=1P_UG_AL_1/0_Brenau_0_416_0_2_2_2_2

New Line.l(r:p1udm5817-p1udm5820) Units=km Length=0.00961892 bus1=p1udm5817.1.2 bus2=p1udm5820.1.2 switch=n enabled=y phases=2 Linecode=1P_UG_AL_1/0_Brenau_0_416_0_2_2_2_2

New Line.l(r:p1udm5817-p1udt1589lv) Units=km Length=0.0192378 bus1=p1udt1589lv.1.2 bus2=p1udm5817.1.2 switch=n enabled=y phases=2 Linecode=1P_UG_AL_4/0_Sweetbriar_0_416_0_2_2_2_2

New Line.l(r:p1udt1590lv-p1ulv1655) Units=km Length=0.0154468 bus1=p1udt1590lv.1.2 bus2=p1ulv1655.1.2 switch=n enabled=y phases=2 Linecode=1P_UG_AL_1/0_Brenau_0_416_0_2_2_2_2

New Line.l(r:p1udm5822-p1ulv33296) Units=km Length=0.01614 bus1=p1udm5822.1.2 bus2=p1ulv33296.1.2 switch=n enabled=y phases=2 Linecode=1P_UG_AL_1/0_Brenau_0_416_0_2_2_2_2

New Line.l(r:p1udm5822-p1ulv37704) Units=km Length=0.015384 bus1=p1udm5822.1.2 bus2=p1ulv37704.1.2 switch=n enabled=y phases=2 Linecode=1P_UG_AL_1/0_Brenau_0_416_0_2_2_2_2

New Line.l(r:p1udm5822-p1udt1590lv) Units=km Length=0.00813266 bus1=p1udt1590lv.1.2 bus2=p1udm5822.1.2 switch=n enabled=y phases=2 Linecode=1P_UG_AL_4/0_Sweetbriar_0_416_0_2_2_2_2

New Line.l(r:p1udm5824-p1ulv37705) Units=km Length=0.017516000000000004 bus1=p1udm5824.1.2 bus2=p1ulv37705.1.2 switch=n enabled=y phases=2 Linecode=1P_UG_AL_1/0_Brenau_0_416_0_2_2_2_2

New Line.l(r:p1udm5824-p1udt1590lv) Units=km Length=0.00813266 bus1=p1udt1590lv.1.2 bus2=p1udm5824.1.2 switch=n enabled=y phases=2 Linecode=1P_UG_AL_1/0_Brenau_0_416_0_2_2_2_2

New Line.l(r:p1udt1591lv-p1ulv35207) Units=km Length=0.0143647 bus1=p1udt1591lv.1.2 bus2=p1ulv35207.1.2 switch=n enabled=y phases=2 Linecode=1P_UG_AL_1/0_Brenau_0_416_0_2_2_2_2

New Line.l(r:p1udm5825-p1ulv1656) Units=km Length=0.017071 bus1=p1udm5825.1.2 bus2=p1ulv1656.1.2 switch=n enabled=y phases=2 Linecode=1P_UG_AL_1/0_Brenau_0_416_0_2_2_2_2

New Line.l(r:p1udm5826-p1ulv9193) Units=km Length=0.0148401 bus1=p1udm5826.1.2 bus2=p1ulv9193.1.2 switch=n enabled=y phases=2 Linecode=1P_UG_AL_1/0_Brenau_0_416_0_2_2_2_2

New Line.l(r:p1udm5826-p1ulv42694) Units=km Length=0.0169999 bus1=p1udm5826.1.2 bus2=p1ulv42694.1.2 switch=n enabled=y phases=2 Linecode=1P_UG_AL_1/0_Brenau_0_416_0_2_2_2_2
