New Line.l(r:p4udt314lv-p4ulv320) Units=km Length=0.0830078 bus1=p4udt314lv.1.2 bus2=p4ulv320.1.2 switch=n enabled=y phases=2 Linecode=1P_OH_AL_4/0_Zuzara_0_416_0_2_2_2_2

New Line.l(r:p4udt338lv-p4ulv344) Units=km Length=0.001 bus1=p4udt338lv.1.2 bus2=p4ulv344.1.2 switch=n enabled=y phases=2 Linecode=1P_OH_AL_4_Periwinkle_0_416_0_2_2_2_2

New Line.l(r:p4udt341lv-p4ulv7449) Units=km Length=0.0166393 bus1=p4udt341lv.1.2 bus2=p4ulv7449.1.2 switch=n enabled=y phases=2 Linecode=1P_OH_AL_2/0_Rucina_0_416_0_2_2_2_2

New Line.l(r:p4udm871-p4ulv347) Units=km Length=0.0159099 bus1=p4udm871.1.2 bus2=p4ulv347.1.2 switch=n enabled=y phases=2 Linecode=1P_OH_AL_2/0_Rucina_0_416_0_2_2_2_2

New Line.l(r:p4udm871-p4ulv28802) Units=km Length=0.015009000000000002 bus1=p4udm871.1.2 bus2=p4ulv28802.1.2 switch=n enabled=y phases=2 Linecode=1P_OH_AL_2/0_Rucina_0_416_0_2_2_2_2

New Line.l(r:p4udm871-p4udt341lv) Units=km Length=0.013405400000000001 bus1=p4udt341lv.1.2 bus2=p4udm871.1.2 switch=n enabled=y phases=2 Linecode=1P_OH_AL_2/0_Rucina_0_416_0_2_2_2_2

New Line.l(r:p4udm873-p4ulv28391) Units=km Length=0.0154003 bus1=p4udm873.1.2 bus2=p4ulv28391.1.2 switch=n enabled=y phases=2 Linecode=1P_OH_AL_2/0_Rucina_0_416_0_2_2_2_2

New Line.l(r:p4udm873-p4ulv32605) Units=km Length=0.0181605 bus1=p4udm873.1.2 bus2=p4ulv32605.1.2 switch=n enabled=y phases=2 Linecode=1P_OH_AL_2/0_Rucina_0_416_0_2_2_2_2

New Line.l(r:p4udm873-p4udt341lv) Units=km Length=0.0134151 bus1=p4udt341lv.1.2 bus2=p4udm873.1.2 switch=n enabled=y phases=2 Linecode=1P_OH_AL_2/0_Rucina_0_416_0_2_2_2_2

New Line.l(r:p4udm3091-p4ulv1185) Units=km Length=0.05094490000000001 bus1=p4udm3091.1.2 bus2=p4ulv1185.1.2 switch=n enabled=y phases=2 Linecode=1P_UG_AL_1/0_Brenau_0_416_0_2_2_2_2

New Line.l(r:p4udm3091-p4udt1152lv) Units=km Length=0.0494566 bus1=p4udt1152lv.1.2 bus2=p4udm3091.1.2 switch=n enabled=y phases=2 Linecode=1P_UG_AL_1/0_Brenau_0_416_0_2_2_2_2

New Line.l(r:p4udm3092-p4ulv28800) Units=km Length=0.031021100000000003 bus1=p4udm3092.1.2 bus2=p4ulv28800.1.2 switch=n enabled=y phases=2 Linecode=1P_UG_AL_1/0_Brenau_0_416_0_2_2_2_2

New Line.l(r:p4udm3092-p4udt1152lv) Units=km Length=0.0155486 bus1=p4udt1152lv.1.2 bus2=p4udm3092.1.2 switch=n enabled=y phases=2 Linecode=1P_UG_AL_1/0_Brenau_0_416_0_2_2_2_2

New Line.l(r:p4udm3093-p4ulv31366) Units=km Length=0.05963650000000001 bus1=p4udm3093.1.2 bus2=p4ulv31366.1.2 switch=n enabled=y phases=2 Linecode=1P_OH_AL_4/0_Zuzara_0_416_0_2_2_2_2

New Line.l(r:p4udm3093-p4udt1152lv) Units=km Length=0.03879 bus1=p4udt1152lv.1.2 bus2=p4udm3093.1.2 switch=n enabled=y phases=2 Linecode=1P_OH_AL_4/0_Zuzara_0_416_0_2_2_2_2

New Line.l(r:p4udt1523lv-p4ulv1583) Units=km Length=0.00573245 bus1=p4udt1523lv.1.2 bus2=p4ulv1583.1.2 switch=n enabled=y phases=2 Linecode=1P_OH_AL_2/0_Rucina_0_416_0_2_2_2_2

New Line.l(r:p4udt1545lv-p4ulv1607) Units=km Length=0.00272215 bus1=p4udt1545lv.1.2 bus2=p4ulv1607.1.2 switch=n enabled=y phases=2 Linecode=1P_OH_AL_4_Periwinkle_0_416_0_2_2_2_2

New Line.l(r:p4udm4196-p4ulv4525) Units=km Length=0.0129483 bus1=p4udm4196.1.2 bus2=p4ulv4525.1.2 switch=n enabled=y phases=2 Linecode=1P_OH_AL_2/0_Rucina_0_416_0_2_2_2_2

New Line.l(r:p4udm4196-p4udt1559lv) Units=km Length=0.029310500000000003 bus1=p4udt1559lv.1.2 bus2=p4udm4196.1.2 switch=n enabled=y phases=2 Linecode=1P_OH_AL_4/0_Zuzara_0_416_0_2_2_2_2

New Line.l(r:p4udm4197-p4ulv35991) Units=km Length=0.0125527 bus1=p4udm4197.1.2 bus2=p4ulv35991.1.2 switch=n enabled=y phases=2 Linecode=1P_OH_AL_2/0_Rucina_0_416_0_2_2_2_2

New Line.l(r:p4udm4195-p4ulv1622) Units=km Length=0.00987901 bus1=p4udm4195.1.2 bus2=p4ulv1622.1.2 switch=n enabled=y phases=2 Linecode=1P_OH_AL_2/0_Rucina_0_416_0_2_2_2_2

New Line.l(r:p4udm4195-p4udm4197) Units=km Length=0.0123887 bus1=p4udm4197.1.2 bus2=p4udm4195.1.2 switch=n enabled=y phases=2 Linecode=1P_OH_AL_2/0_Rucina_0_416_0_2_2_2_2

New Line.l(r:p4udm4197-p4udt1559lv) Units=km Length=0.0248229 bus1=p4udt1559lv.1.2 bus2=p4udm4197.1.2 switch=n enabled=y phases=2 Linecode=1P_OH_AL_2/0_Rucina_0_416_0_2_0_2_2_2

New Line.l(r:p4udt1929lv-p4ulv2013) Units=km Length=0.02316 bus1=p4udt1929lv.1.2 bus2=p4ulv2013.1.2 switch=n enabled=y phases=2 Linecode=1P_OH_AL_2/0_Rucina_0_416_0_2_2_2_2

New Line.l(r:p4udm5188-p4ulv12596) Units=km Length=0.055299 bus1=p4udm5188.1.2 bus2=p4ulv12596.1.2 switch=n enabled=y phases=2 Linecode=1P_OH_AL_4/0_Zuzara_0_416_0_2_2_2_2

New Line.l(r:p4udm5188-p4udt1929lv) Units=km Length=0.0157131 bus1=p4udt1929lv.1.2 bus2=p4udm5188.1.2 switch=n enabled=y phases=2 Linecode=1P_OH_AL_2/0_Rucina_0_416_0_2_2_2_2

New Line.l(r:p4udt2259lv-p4ulv2370) Units=km Length=0.00898045 bus1=p4udt2259lv.1.2 bus2=p4ulv2370.1.2 switch=n enabled=y phases=2 Linecode=1P_OH_AL_2/0_Rucina_0_416_0_2_2_2_2

New Line.l(r:p4udt2260lv-p4ulv2371) Units=km Length=0.00657371 bus1=p4udt2260lv.1.2 bus2=p4ulv2371.1.2 switch=n enabled=y phases=2 Linecode=1P_OH_AL_2/0_Rucina_0_416_0_2_2_2_2

New Line.l(r:p4udt2294lv-p4ulv2407) Units=km Length=0.0310833 bus1=p4udt2294lv.1.2 bus2=p4ulv2407.1.2 switch=n enabled=y phases=2 Linecode=1P_OH_AL_4/0_Zuzara_0_416_0_2_2_2_2

New Line.l(r:p4udt2295lv-p4ulv38525) Units=km Length=0.0215238 bus1=p4udt2295lv.1.2 bus2=p4ulv38525.1.2 switch=n enabled=y phases=2 Linecode=1P_OH_AL_2/0_Rucina_0_416_0_2_2_2_2

New Line.l(r:p4udm6120-p4ulv2408) Units=km Length=0.00617382 bus1=p4udm6120.1.2 bus2=p4ulv2408.1.2 switch=n enabled=y phases=2 Linecode=1P_OH_AL_2/0_Rucina_0_416_0_2_2_2_2

New Line.l(r:p4udm6120-p4udt2295lv) Units=km Length=0.0124705 bus1=p4udt2295lv.1.2 bus2=p4udm6120.1.2 switch=n enabled=y phases=2 Linecode=1P_OH_AL_2/0_Rucina_0_416_0_2_2_2_2

New Line.l(r:p4udm6121-p4ulv11725) Units=km Length=0.0072387400000000005 bus1=p4udm6121.1.2 bus2=p4ulv11725.1.2 switch=n enabled=y phases=2 Linecode=1P_OH_AL_2/0_Rucina_0_416_0_2_2_2_2

New Line.l(r:p4udm6121-p4udt2295lv) Units=km Length=0.0126598 bus1=p4udt2295lv.1.2 bus2=p4udm6121.1.2 switch=n enabled=y phases=2 Linecode=1P_OH_AL_2/0_Rucina_0_416_0_2_2_2_2

New Line.l(r:p4udt2680lv-p4ulv10414) Units=km Length=0.0132227 bus1=p4udt2680lv.1.2 bus2=p4ulv10414.1.2 switch=n enabled=y phases=2 Linecode=1P_OH_AL_2/0_Rucina_0_416_0_2_2_2_2

New Line.l(r:p4udm7126-p4ulv2841) Units=km Length=0.0149388 bus1=p4udm7126.1.2 bus2=p4ulv2841.1.2 switch=n enabled=y phases=2 Linecode=1P_OH_AL_2/0_Rucina_0_416_0_2_2_2_2

New Line.l(r:p4udm7126-p4udt2680lv) Units=km Length=0.00965128 bus1=p4udt2680lv.1.2 bus2=p4udm7126.1.2 switch=n enabled=y phases=2 Linecode=1P_OH_AL_2/0_Rucina_0_416_0_2_2_2_2

New Line.l(r:p4udm7174-p4ulv2857) Units=km Length=0.00508839 bus1=p4udm7174.1.2 bus2=p4ulv2857.1.2 switch=n enabled=y phases=2 Linecode=1P_UG_AL_1/0_Brenau_0_416_0_2_2_2_2

New Line.l(r:p4udm7177-p4ulv33896) Units=km Length=0.0114298 bus1=p4udm7177.1.2 bus2=p4ulv33896.1.2 switch=n enabled=y phases=2 Linecode=1P_UG_AL_1/0_Brenau_0_416_0_2_2_2_2

New Line.l(r:p4udm7174-p4udm7177) Units=km Length=0.0429914 bus1=p4udm7174.1.2 bus2=p4udm7177.1.2 switch=n enabled=y phases=2 Linecode=1P_UG_AL_1/0_Brenau_0_416_0_2_2_2_2

New Line.l(r:p4udm7174-p4udt2693lv) Units=km Length=0.024546100000000005 bus1=p4udt2693lv.1.2 bus2=p4udm7174.1.2 switch=n enabled=y phases=2 Linecode=1P_UG_AL_1/0_Brenau_0_416_0_2_2_2_2

New Line.l(r:p4udm7175-p4ulv4523) Units=km Length=0.00566993 bus1=p4udm7175.1.2 bus2=p4ulv4523.1.2 switch=n enabled=y phases=2 Linecode=1P_UG_AL_1/0_Brenau_0_416_0_2_2_2_2

New Line.l(r:p4udm7175-p4ulv30930) Units=km Length=0.00567168 bus1=p4udm7175.1.2 bus2=p4ulv30930.1.2 switch=n enabled=y phases=2 Linecode=1P_UG_AL_1/0_Brenau_0_416_0_2_2_2_2

New Line.l(r:p4udm7175-p4udt2693lv) Units=km Length=0.0189767 bus1=p4udt2693lv.1.2 bus2=p4udm7175.1.2 switch=n enabled=y phases=2 Linecode=1P_UG_AL_4/0_Sweetbriar_0_416_0_2_2_2_2

New Line.l(r:p4udm7179-p4ulv2859) Units=km Length=0.017722 bus1=p4udm7179.1.2 bus2=p4ulv2859.1.2 switch=n enabled=y phases=2 Linecode=1P_UG_AL_1/0_Brenau_0_416_0_2_2_2_2

New Line.l(r:p4udm7181-p4ulv20834) Units=km Length=0.013981 bus1=p4udm7181.1.2 bus2=p4ulv20834.1.2 switch=n enabled=y phases=2 Linecode=1P_UG_AL_1/0_Brenau_0_416_0_2_2_2_2

New Line.l(r:p4udm7179-p4udm7181) Units=km Length=0.00938244 bus1=p4udm7179.1.2 bus2=p4udm7181.1.2 switch=n enabled=y phases=2 Linecode=1P_UG_AL_1/0_Brenau_0_416_0_2_2_2_2

New Line.l(r:p4udm7179-p4udt2695lv) Units=km Length=0.0093777 bus1=p4udt2695lv.1.2 bus2=p4udm7179.1.2 switch=n enabled=y phases=2 Linecode=1P_UG_AL_4/0_Sweetbriar_0_416_0_2_2_2_2

New Line.l(r:p4udm7180-p4ulv20365) Units=km Length=0.0136223 bus1=p4udm7180.1.2 bus2=p4ulv20365.1.2 switch=n enabled=y phases=2 Linecode=1P_UG_AL_1/0_Brenau_0_416_0_2_2_2_2

New Line.l(r:p4udm7180-p4udt2695lv) Units=km Length=0.0187689 bus1=p4udt2695lv.1.2 bus2=p4udm7180.1.2 switch=n enabled=y phases=2 Linecode=1P_UG_AL_1/0_Brenau_0_416_0_2_2_2_2

New Line.l(r:p4udt3030lv-p4ulv3234) Units=km Length=0.0434899 bus1=p4udt3030lv.1.2 bus2=p4ulv3234.1.2 switch=n enabled=y phases=2 Linecode=1P_OH_AL_4/0_Zuzara_0_416_0_2_2_2_2

New Line.l(r:p4udt3030lv-p4ulv40978) Units=km Length=0.0113848 bus1=p4udt3030lv.1.2 bus2=p4ulv40978.1.2 switch=n enabled=y phases=2 Linecode=1P_OH_AL_2/0_Rucina_0_416_0_2_2_2_2

New Line.l(r:p4udm8020-p4ulv3673) Units=km Length=0.021101200000000004 bus1=p4udm8020.1.2 bus2=p4ulv3673.1.2 switch=n enabled=y phases=2 Linecode=1P_OH_AL_2/0_Rucina_0_416_0_2_2_2_2

New Line.l(r:p4udm8020-p4udt3030lv) Units=km Length=0.017706 bus1=p4udt3030lv.1.2 bus2=p4udm8020.1.2 switch=n enabled=y phases=2 Linecode=1P_OH_AL_2/0_Rucina_0_416_0_2_2_2_2

New Line.l(r:p4udm8022-p4ulv3235) Units=km Length=0.0251861 bus1=p4udm8022.1.2 bus2=p4ulv3235.1.2 switch=n enabled=y phases=2 Linecode=1P_OH_AL_2/0_Rucina_0_416_0_2_2_2_2

New Line.l(r:p4udm8022-p4udt3031lv) Units=km Length=0.017038 bus1=p4udt3031lv.1.2 bus2=p4udm8022.1.2 switch=n enabled=y phases=2 Linecode=1P_OH_AL_2/0_Rucina_0_416_0_2_2_2_2

New Line.l(r:p4udm8023-p4ulv40979) Units=km Length=0.0294334 bus1=p4udm8023.1.2 bus2=p4ulv40979.1.2 switch=n enabled=y phases=2 Linecode=1P_OH_AL_4/0_Zuzara_0_416_0_2_2_2_2

New Line.l(r:p4udm8023-p4udt3031lv) Units=km Length=0.0168082 bus1=p4udt3031lv.1.2 bus2=p4udm8023.1.2 switch=n enabled=y phases=2 Linecode=1P_OH_AL_2/0_Rucina_0_416_0_2_2_2_2

New Line.l(r:p4udt3046lv-p4ulv3251) Units=km Length=0.0240305 bus1=p4udt3046lv.1.2 bus2=p4ulv3251.1.2 switch=n enabled=y phases=2 Linecode=1P_UG_AL_1/0_Brenau_0_416_0_2_2_2_2

New Line.l(r:p4udt3063lv-p4ulv3268) Units=km Length=0.029992 bus1=p4udt3063lv.1.2 bus2=p4ulv3268.1.2 switch=n enabled=y phases=2 Linecode=1P_UG_AL_1/0_Brenau_0_416_0_2_2_2_2

New Line.l(r:p4udt3063lv-p4ulv6623) Units=km Length=0.0243208 bus1=p4udt3063lv.1.2 bus2=p4ulv6623.1.2 switch=n enabled=y phases=2 Linecode=1P_UG_AL_1/0_Brenau_0_416_0_2_2_2_2

New Line.l(r:p4udt3063lv-p4ulv36405) Units=km Length=0.0246921 bus1=p4udt3063lv.1.2 bus2=p4ulv36405.1.2 switch=n enabled=y phases=2 Linecode=1P_UG_AL_1/0_Brenau_0_416_0_2_2_2_2

New Line.l(r:p4udt3063lv-p4ulv38898) Units=km Length=0.021763300000000003 bus1=p4udt3063lv.1.2 bus2=p4ulv38898.1.2 switch=n enabled=y phases=2 Linecode=1P_UG_AL_1/0_Brenau_0_416_0_2_2_2_2

New Line.l(r:p4udm8123-p4ulv40148) Units=km Length=0.0130762 bus1=p4udm8123.1.2 bus2=p4ulv40148.1.2 switch=n enabled=y phases=2 Linecode=1P_UG_AL_1/0_Brenau_0_416_0_2_2_2_2

New Line.l(r:p4udm8123-p4udt3063lv) Units=km Length=0.030728400000000003 bus1=p4udt3063lv.1.2 bus2=p4udm8123.1.2 switch=n enabled=y phases=2 Linecode=1P_UG_AL_1/0_Brenau_0_416_0_2_2_2_2

New Line.l(r:p4udt3427lv-p4ulv3676) Units=km Length=0.016510100000000003 bus1=p4udt3427lv.1.2 bus2=p4ulv3676.1.2 switch=n enabled=y phases=2 Linecode=1P_OH_AL_2/0_Rucina_0_416_0_2_2_2_2

New Line.l(r:p4udm9085-p4ulv3699) Units=km Length=0.0147572 bus1=p4udm9085.1.2 bus2=p4ulv3699.1.2 switch=n enabled=y phases=2 Linecode=1P_OH_AL_2/0_Rucina_0_416_0_2_2_2_2

New Line.l(r:p4udm9085-p4udt3450lv) Units=km Length=0.0304859 bus1=p4udt3450lv.1.2 bus2=p4udm9085.1.2 switch=n enabled=y phases=2 Linecode=1P_OH_AL_4/0_Zuzara_0_416_0_2_2_2_2

New Line.l(r:p4udm9086-p4ulv36806) Units=km Length=0.0781926 bus1=p4udm9086.1.2 bus2=p4ulv36806.1.2 switch=n enabled=y phases=2 Linecode=1P_OH_AL_4/0_Zuzara_0_416_0_2_2_2_2

New Line.l(r:p4udm9086-p4udt3450lv) Units=km Length=0.0092184 bus1=p4udt3450lv.1.2 bus2=p4udm9086.1.2 switch=n enabled=y phases=2 Linecode=1P_OH_AL_2/0_Rucina_0_416_0_2_2_2_2

New Line.l(r:p4udt3462lv-p4ulv3713) Units=km Length=0.00715531 bus1=p4udt3462lv.1.2 bus2=p4ulv3713.1.2 switch=n enabled=y phases=2 Linecode=1P_UG_AL_1/0_Brenau_0_416_0_2_2_2_2

New Line.l(r:p4udt4155lv-p4ulv4524) Units=km Length=0.0363921 bus1=p4udt4155lv.1.2 bus2=p4ulv4524.1.2 switch=n enabled=y phases=2 Linecode=1P_UG_AL_1/0_Brenau_0_416_0_2_2_2_2

New Line.l(r:p4udm10822-p4ulv13038) Units=km Length=0.0062408 bus1=p4udm10822.1.2 bus2=p4ulv13038.1.2 switch=n enabled=y phases=2 Linecode=1P_UG_AL_1/0_Brenau_0_416_0_2_2_2_2

New Line.l(r:p4udm10822-p4udt4155lv) Units=km Length=0.025683700000000004 bus1=p4udt4155lv.1.2 bus2=p4udm10822.1.2 switch=n enabled=y phases=2 Linecode=1P_UG_AL_1/0_Brenau_0_416_0_2_2_2_2

New Line.l(r:p4udm10823-p4ulv35560) Units=km Length=0.00557369 bus1=p4udm10823.1.2 bus2=p4ulv35560.1.2 switch=n enabled=y phases=2 Linecode=1P_UG_AL_1/0_Brenau_0_416_0_2_2_2_2

New Line.l(r:p4udm10823-p4udt4155lv) Units=km Length=0.0268973 bus1=p4udt4155lv.1.2 bus2=p4udm10823.1.2 switch=n enabled=y phases=2 Linecode=1P_UG_AL_1/0_Brenau_0_416_0_2_2_2_2

New Line.l(r:p4udt4441lv-p4ulv4870) Units=km Length=0.0218488 bus1=p4udt4441lv.1.2 bus2=p4ulv4870.1.2 switch=n enabled=y phases=2 Linecode=1P_OH_AL_2/0_Rucina_0_416_0_2_2_2_2

New Line.l(r:p4udt4481lv-p4ulv4916) Units=km Length=0.0223938 bus1=p4udt4481lv.1.2 bus2=p4ulv4916.1.2 switch=n enabled=y phases=2 Linecode=1P_OH_AL_2/0_Rucina_0_416_0_2_2_2_2

New Line.l(r:p4udt4482lv-p4ulv4917) Units=km Length=0.0171044 bus1=p4udt4482lv.1.2 bus2=p4ulv4917.1.2 switch=n enabled=y phases=2 Linecode=1P_OH_AL_2/0_Rucina_0_416_0_2_2_2_2

New Line.l(r:p4udt4482lv-p4ulv17399) Units=km Length=0.0140286 bus1=p4udt4482lv.1.2 bus2=p4ulv17399.1.2 switch=n enabled=y phases=2 Linecode=1P_OH_AL_2/0_Rucina_0_416_0_2_2_2_2

New Line.l(r:p4udm11674-p4ulv10845) Units=km Length=0.0160953 bus1=p4udm11674.1.2 bus2=p4ulv10845.1.2 switch=n enabled=y phases=2 Linecode=1P_OH_AL_2/0_Rucina_0_416_0_2_2_2_2

New Line.l(r:p4udm11674-p4udt4482lv) Units=km Length=0.0394713 bus1=p4udt4482lv.1.2 bus2=p4udm11674.1.2 switch=n enabled=y phases=2 Linecode=1P_OH_AL_4/0_Zuzara_0_416_0_2_2_2_2

New Line.l(r:p4udm11675-p4ulv12595) Units=km Length=0.0187518 bus1=p4udm11675.1.2 bus2=p4ulv12595.1.2 switch=n enabled=y phases=2 Linecode=1P_OH_AL_2/0_Rucina_0_416_0_2_2_2_2

New Line.l(r:p4udm11675-p4ulv31367) Units=km Length=0.0147586 bus1=p4udm11675.1.2 bus2=p4ulv31367.1.2 switch=n enabled=y phases=2 Linecode=1P_OH_AL_2/0_Rucina_0_416_0_2_2_2_2

New Line.l(r:p4udm11675-p4udt4482lv) Units=km Length=0.0197318 bus1=p4udt4482lv.1.2 bus2=p4udm11675.1.2 switch=n enabled=y phases=2 Linecode=1P_OH_AL_2/0_Rucina_0_416_0_2_2_2_2

New Line.l(r:p4udt4483lv-p4ulv4918) Units=km Length=0.0217408 bus1=p4udt4483lv.1.2 bus2=p4ulv4918.1.2 switch=n enabled=y phases=2 Linecode=1P_UG_AL_4/0_Sweetbriar_0_416_0_2_2_2_2

New Line.l(r:p4udt4842lv-p4ulv5360) Units=km Length=0.03352220000000001 bus1=p4udt4842lv.1.2 bus2=p4ulv5360.1.2 switch=n enabled=y phases=2 Linecode=1P_OH_AL_4/0_Zuzara_0_416_0_2_2_2_2

New Line.l(r:p4udt5184lv-p4ulv5792) Units=km Length=0.0330717 bus1=p4udt5184lv.1.2 bus2=p4ulv5792.1.2 switch=n enabled=y phases=2 Linecode=1P_OH_AL_4/0_Zuzara_0_416_0_2_2_2_2

New Line.l(r:p4udm13450-p4ulv5802) Units=km Length=0.012226 bus1=p4udm13450.1.2 bus2=p4ulv5802.1.2 switch=n enabled=y phases=2 Linecode=1P_OH_AL_2/0_Rucina_0_416_0_2_2_2_2

New Line.l(r:p4udm13450-p4udt5192lv) Units=km Length=0.0169357 bus1=p4udt5192lv.1.2 bus2=p4udm13450.1.2 switch=n enabled=y phases=2 Linecode=1P_OH_AL_2/0_Rucina_0_416_0_2_2_2_2

New Line.l(r:p4udm13451-p4ulv24562) Units=km Length=0.0144434 bus1=p4udm13451.1.2 bus2=p4ulv24562.1.2 switch=n enabled=y phases=2 Linecode=1P_OH_AL_2/0_Rucina_0_416_0_2_2_2_2

New Line.l(r:p4udm13451-p4udt5192lv) Units=km Length=0.0123144 bus1=p4udt5192lv.1.2 bus2=p4udm13451.1.2 switch=n enabled=y phases=2 Linecode=1P_OH_AL_2/0_Rucina_0_416_0_2_2_2_2

New Line.l(r:p4udm13455-p4ulv5804) Units=km Length=0.0238097 bus1=p4udm13455.1.2 bus2=p4ulv5804.1.2 switch=n enabled=y phases=2 Linecode=1P_OH_AL_2/0_Rucina_0_416_0_2_2_2_2

New Line.l(r:p4udm13455-p4udt5194lv) Units=km Length=0.0422053 bus1=p4udt5194lv.1.2 bus2=p4udm13455.1.2 switch=n enabled=y phases=2 Linecode=1P_OH_AL_4/0_Zuzara_0_416_0_2_2_2_2

New Line.l(r:p4udm13456-p4ulv22115) Units=km Length=0.014154 bus1=p4udm13456.1.2 bus2=p4ulv22115.1.2 switch=n enabled=y phases=2 Linecode=1P_OH_AL_2/0_Rucina_0_416_0_2_2_2_2

New Line.l(r:p4udm13456-p4ulv40147) Units=km Length=0.017453500000000004 bus1=p4udm13456.1.2 bus2=p4ulv40147.1.2 switch=n enabled=y phases=2 Linecode=1P_OH_AL_2/0_Rucina_0_416_0_2_2_2_2

New Line.l(r:p4udm13456-p4udt5194lv) Units=km Length=0.0477973 bus1=p4udt5194lv.1.2 bus2=p4udm13456.1.2 switch=n enabled=y phases=2 Linecode=1P_OH_AL_4/0_Zuzara_0_416_0_2_2_2_2

New Line.l(r:p4udt5520lv-p4ulv29672) Units=km Length=0.0257376 bus1=p4udt5520lv.1.2 bus2=p4ulv29672.1.2 switch=n enabled=y phases=2 Linecode=1P_OH_AL_2/0_Rucina_0_416_0_2_2_2_2

New Line.l(r:p4udt5520lv-p4ulv34746) Units=km Length=0.0434782 bus1=p4udt5520lv.1.2 bus2=p4ulv34746.1.2 switch=n enabled=y phases=2 Linecode=1P_OH_AL_4/0_Zuzara_0_416_0_2_2_2_2

New Line.l(r:p4udm14205-p4ulv6213) Units=km Length=0.0288192 bus1=p4udm14205.1.2 bus2=p4ulv6213.1.2 switch=n enabled=y phases=2 Linecode=1P_OH_AL_4/0_Zuzara_0_416_0_2_2_2_2

New Line.l(r:p4udm14206-p4ulv12159) Units=km Length=0.0241316 bus1=p4udm14206.1.2 bus2=p4ulv12159.1.2 switch=n enabled=y phases=2 Linecode=1P_OH_AL_2/0_Rucina_0_416_0_2_2_2_2

New Line.l(r:p4udm14205-p4udm14206) Units=km Length=0.0307684 bus1=p4udm14205.1.2 bus2=p4udm14206.1.2 switch=n enabled=y phases=2 Linecode=1P_OH_AL_4/0_Zuzara_0_416_0_2_2_2_2

New Line.l(r:p4udm14205-p4udt5520lv) Units=km Length=0.015384600000000002 bus1=p4udt5520lv.1.2 bus2=p4udm14205.1.2 switch=n enabled=y phases=2 Linecode=1P_OH_AL_2/0_Rucina_0_416_0_2_2_2_2

New Line.l(r:p4udm15748-p4ulv7036) Units=km Length=0.0165904 bus1=p4udm15748.1.2 bus2=p4ulv7036.1.2 switch=n enabled=y phases=2 Linecode=1P_OH_AL_2/0_Rucina_0_416_0_2_2_2_2

New Line.l(r:p4udm15748-p4udt6170lv) Units=km Length=0.0197318 bus1=p4udt6170lv.1.2 bus2=p4udm15748.1.2 switch=n enabled=y phases=2 Linecode=1P_OH_AL_2/0_Rucina_0_416_0_2_2_2_2

New Line.l(r:p4udm15749-p4ulv19489) Units=km Length=0.0198987 bus1=p4udm15749.1.2 bus2=p4ulv19489.1.2 switch=n enabled=y phases=2 Linecode=1P_OH_AL_2/0_Rucina_0_416_0_2_2_2_2

New Line.l(r:p4udm15749-p4udt6170lv) Units=km Length=0.0197395 bus1=p4udt6170lv.1.2 bus2=p4udm15749.1.2 switch=n enabled=y phases=2 Linecode=1P_OH_AL_2/0_Rucina_0_416_0_2_2_2_2

New Line.l(r:p4udm16426-p4ulv7450) Units=km Length=0.0179333 bus1=p4udm16426.1.2 bus2=p4ulv7450.1.2 switch=n enabled=y phases=2 Linecode=1P_OH_AL_2/0_Rucina_0_416_0_2_2_2_2

New Line.l(r:p4udm16426-p4udt6468lv) Units=km Length=0.0236403 bus1=p4udt6468lv.1.2 bus2=p4udm16426.1.2 switch=n enabled=y phases=2 Linecode=1P_OH_AL_2/0_Rucina_0_416_0_2_2_2_2

New Line.l(r:p4udm16427-p4ulv7879) Units=km Length=0.0170023 bus1=p4udm16427.1.2 bus2=p4ulv7879.1.2 switch=n enabled=y phases=2 Linecode=1P_OH_AL_2/0_Rucina_0_416_0_2_2_2_2

New Line.l(r:p4udm16427-p4udt6468lv) Units=km Length=0.0106847 bus1=p4udt6468lv.1.2 bus2=p4udm16427.1.2 switch=n enabled=y phases=2 Linecode=1P_OH_AL_2/0_Rucina_0_416_0_2_2_2_2

New Line.l(r:p4udt6774lv-p4ulv7851) Units=km Length=0.0210688 bus1=p4udt6774lv.1.2 bus2=p4ulv7851.1.2 switch=n enabled=y phases=2 Linecode=1P_OH_AL_2/0_Rucina_0_416_0_2_2_2_2

New Line.l(r:p4udt7093lv-p4ulv12123) Units=km Length=0.0364094 bus1=p4udt7093lv.1.2 bus2=p4ulv12123.1.2 switch=n enabled=y phases=2 Linecode=1P_OH_AL_4/0_Zuzara_0_416_0_2_2_2_2

New Line.l(r:p4udm17867-p4ulv8281) Units=km Length=0.0465002 bus1=p4udm17867.1.2 bus2=p4ulv8281.1.2 switch=n enabled=y phases=2 Linecode=1P_OH_AL_4/0_Zuzara_0_416_0_2_2_2_2

New Line.l(r:p4udm17867-p4udt7093lv) Units=km Length=0.0132071 bus1=p4udt7093lv.1.2 bus2=p4udm17867.1.2 switch=n enabled=y phases=2 Linecode=1P_OH_AL_2/0_Rucina_0_416_0_2_2_2_2

New Line.l(r:p4udm17869-p4ulv22899) Units=km Length=0.029415600000000004 bus1=p4udm17869.1.2 bus2=p4ulv22899.1.2 switch=n enabled=y phases=2 Linecode=1P_OH_AL_4/0_Zuzara_0_416_0_2_2_2_2

New Line.l(r:p4udm17869-p4udt7093lv) Units=km Length=0.027719300000000002 bus1=p4udt7093lv.1.2 bus2=p4udm17869.1.2 switch=n enabled=y phases=2 Linecode=1P_OH_AL_4/0_Zuzara_0_416_0_2_2_2_2

New Line.l(r:p4udt7116lv-p4ulv8317) Units=km Length=0.00300108 bus1=p4udt7116lv.1.2 bus2=p4ulv8317.1.2 switch=n enabled=y phases=2 Linecode=1P_OH_AL_4_Periwinkle_0_416_0_2_2_2_2

New Line.l(r:p4udm18589-p4ulv8730) Units=km Length=0.0239514 bus1=p4udm18589.1.2 bus2=p4ulv8730.1.2 switch=n enabled=y phases=2 Linecode=1P_UG_AL_1/0_Brenau_0_416_0_2_2_2_2

New Line.l(r:p4udm18589-p4ulv22918) Units=km Length=0.0455741 bus1=p4udm18589.1.2 bus2=p4ulv22918.1.2 switch=n enabled=y phases=2 Linecode=1P_UG_AL_2/0_Converse_0_416_0_2_2_2_2

New Line.l(r:p4udm18589-p4udt7415lv) Units=km Length=0.00867698 bus1=p4udt7415lv.1.2 bus2=p4udm18589.1.2 switch=n enabled=y phases=2 Linecode=1P_UG_AL_4/0_Sweetbriar_0_416_0_2_2_2_2

New Line.l(r:p4udm18591-p4ulv43939) Units=km Length=0.0181199 bus1=p4udm18591.1.2 bus2=p4ulv43939.1.2 switch=n enabled=y phases=2 Linecode=1P_UG_AL_1/0_Brenau_0_416_0_2_2_2_2

New Line.l(r:p4udm18591-p4udt7415lv) Units=km Length=0.0086635 bus1=p4udt7415lv.1.2 bus2=p4udm18591.1.2 switch=n enabled=y phases=2 Linecode=1P_UG_AL_1/0_Brenau_0_416_0_2_2_2_2

New Line.l(r:p4udt7424lv-p4ulv8742) Units=km Length=0.09563060000000001 bus1=p4udt7424lv.1.2 bus2=p4ulv8742.1.2 switch=n enabled=y phases=2 Linecode=1P_OH_AL_4/0_Zuzara_0_416_0_2_2_2_2

New Line.l(r:p4udt7425lv-p4ulv8743) Units=km Length=0.0215034 bus1=p4udt7425lv.1.2 bus2=p4ulv8743.1.2 switch=n enabled=y phases=2 Linecode=1P_OH_AL_2/0_Rucina_0_416_0_2_2_2_2

New Line.l(r:p4udm19220-p4ulv9120) Units=km Length=0.0214009 bus1=p4udm19220.1.2 bus2=p4ulv9120.1.2 switch=n enabled=y phases=2 Linecode=1P_OH_AL_2/0_Rucina_0_416_0_2_2_2_2

New Line.l(r:p4udm19220-p4udt7696lv) Units=km Length=0.0367602 bus1=p4udt7696lv.1.2 bus2=p4udm19220.1.2 switch=n enabled=y phases=2 Linecode=1P_OH_AL_4/0_Zuzara_0_416_0_2_2_2_2

New Line.l(r:p4udm19221-p4ulv23309) Units=km Length=0.0142391 bus1=p4udm19221.1.2 bus2=p4ulv23309.1.2 switch=n enabled=y phases=2 Linecode=1P_OH_AL_2/0_Rucina_0_416_0_2_2_2_2

New Line.l(r:p4udm19221-p4ulv27067) Units=km Length=0.0171643 bus1=p4udm19221.1.2 bus2=p4ulv27067.1.2 switch=n enabled=y phases=2 Linecode=1P_OH_AL_2/0_Rucina_0_416_0_2_2_2_2

New Line.l(r:p4udm19221-p4udt7696lv) Units=km Length=0.0184294 bus1=p4udt7696lv.1.2 bus2=p4udm19221.1.2 switch=n enabled=y phases=2 Linecode=1P_OH_AL_2/0_Rucina_0_416_0_2_2_2_2

New Line.l(r:p4udt7697lv-p4ulv9121) Units=km Length=0.0242495 bus1=p4udt7697lv.1.2 bus2=p4ulv9121.1.2 switch=n enabled=y phases=2 Linecode=1P_OH_AL_2/0_Rucina_0_416_0_2_2_2_2

New Line.l(r:p4udt7702lv-p4ulv9131) Units=km Length=0.0798092 bus1=p4udt7702lv.1.2 bus2=p4ulv9131.1.2 switch=n enabled=y phases=2 Linecode=1P_UG_AL_4/0_Sweetbriar_0_416_0_2_2_2_2

New Line.l(r:p4udm19243-p4ulv9142) Units=km Length=0.0257921 bus1=p4udm19243.1.2 bus2=p4ulv9142.1.2 switch=n enabled=y phases=2 Linecode=1P_OH_AL_2/0_Rucina_0_416_0_2_2_2_2

New Line.l(r:p4udm19243-p4udt7706lv) Units=km Length=0.0783971 bus1=p4udt7706lv.1.2 bus2=p4udm19243.1.2 switch=n enabled=y phases=2 Linecode=1P_OH_AL_4/0_Zuzara_0_416_0_2_2_2_2

New Line.l(r:p4udm19244-p4ulv43089) Units=km Length=0.0189251 bus1=p4udm19244.1.2 bus2=p4ulv43089.1.2 switch=n enabled=y phases=2 Linecode=1P_OH_AL_2/0_Rucina_0_416_0_2_2_2_2

New Line.l(r:p4udm19244-p4udt7706lv) Units=km Length=0.0196284 bus1=p4udt7706lv.1.2 bus2=p4udm19244.1.2 switch=n enabled=y phases=2 Linecode=1P_OH_AL_2/0_Rucina_0_416_0_2_2_2_2

New Line.l(r:p4udt7709lv-p4ulv40565) Units=km Length=0.0756457 bus1=p4udt7709lv.1.2 bus2=p4ulv40565.1.2 switch=n enabled=y phases=2 Linecode=1P_OH_AL_4/0_Zuzara_0_416_0_2_2_2_2

New Line.l(r:p4udm19250-p4ulv9146) Units=km Length=0.0735733 bus1=p4udm19250.1.2 bus2=p4ulv9146.1.2 switch=n enabled=y phases=2 Linecode=1P_OH_AL_4/0_Zuzara_0_416_0_2_2_2_2

New Line.l(r:p4udm19250-p4udt7709lv) Units=km Length=0.0177943 bus1=p4udt7709lv.1.2 bus2=p4udm19250.1.2 switch=n enabled=y phases=2 Linecode=1P_OH_AL_2/0_Rucina_0_416_0_2_2_2_2

New Line.l(r:p4udt7987lv-p4ulv9544) Units=km Length=0.0118263 bus1=p4udt7987lv.1.2 bus2=p4ulv9544.1.2 switch=n enabled=y phases=2 Linecode=1P_OH_AL_2/0_Rucina_0_416_0_2_2_2_2

New Line.l(r:p4udt7988lv-p4ulv9545) Units=km Length=0.0224327 bus1=p4udt7988lv.1.2 bus2=p4ulv9545.1.2 switch=n enabled=y phases=2 Linecode=1P_OH_AL_2/0_Rucina_0_416_0_2_2_2_2

New Line.l(r:p4udt8012lv-p4ulv9582) Units=km Length=0.013081500000000001 bus1=p4udt8012lv.1.2 bus2=p4ulv9582.1.2 switch=n enabled=y phases=2 Linecode=1P_OH_AL_2/0_Rucina_0_416_0_2_2_2_2

New Line.l(r:p4udt8013lv-p4ulv9583) Units=km Length=0.0610975 bus1=p4udt8013lv.1.2 bus2=p4ulv9583.1.2 switch=n enabled=y phases=2 Linecode=1P_OH_AL_4/0_Zuzara_0_416_0_2_2_2_2

New Line.l(r:p4udt8014lv-p4ulv9584) Units=km Length=0.0633768 bus1=p4udt8014lv.1.2 bus2=p4ulv9584.1.2 switch=n enabled=y phases=2 Linecode=1P_OH_AL_4/0_Zuzara_0_416_0_2_2_2_2

New Line.l(r:p4udt8014lv-p4ulv19080) Units=km Length=0.0220835 bus1=p4udt8014lv.1.2 bus2=p4ulv19080.1.2 switch=n enabled=y phases=2 Linecode=1P_OH_AL_2/0_Rucina_0_416_0_2_2_2_2

New Line.l(r:p4udt8277lv-p4ulv9966) Units=km Length=0.0069310000000000005 bus1=p4udt8277lv.1.2 bus2=p4ulv9966.1.2 switch=n enabled=y phases=2 Linecode=1P_OH_AL_2/0_Rucina_0_416_0_2_2_2_2

New Line.l(r:p4udm21123-p4ulv10428) Units=km Length=0.00342053 bus1=p4udm21123.1.2 bus2=p4ulv10428.1.2 switch=n enabled=y phases=2 Linecode=1P_UG_AL_1/0_Brenau_0_416_0_2_2_2_2

New Line.l(r:p4udm21123-p4udt8596lv) Units=km Length=0.00919024 bus1=p4udt8596lv.1.2 bus2=p4udm21123.1.2 switch=n enabled=y phases=2 Linecode=1P_UG_AL_1/0_Brenau_0_416_0_2_2_2_2

New Line.l(r:p4udm21124-p4ulv15217) Units=km Length=0.026173 bus1=p4udm21124.1.2 bus2=p4ulv15217.1.2 switch=n enabled=y phases=2 Linecode=1P_UG_AL_4/0_Sweetbriar_0_416_0_2_2_2_2

New Line.l(r:p4udm21124-p4ulv30082) Units=km Length=0.00621422 bus1=p4udm21124.1.2 bus2=p4ulv30082.1.2 switch=n enabled=y phases=2 Linecode=1P_UG_AL_1/0_Brenau_0_416_0_2_2_2_2

New Line.l(r:p4udm21124-p4udt8596lv) Units=km Length=0.00919423 bus1=p4udt8596lv.1.2 bus2=p4udm21124.1.2 switch=n enabled=y phases=2 Linecode=1P_UG_AL_4/0_Sweetbriar_0_416_0_2_2_2_2

New Line.l(r:p4udt9140lv-p4ulv11249) Units=km Length=0.0203524 bus1=p4udt9140lv.1.2 bus2=p4ulv11249.1.2 switch=n enabled=y phases=2 Linecode=1P_OH_AL_2/0_Rucina_0_416_0_2_2_2_2

New Line.l(r:p4udm22254-p4ulv26627) Units=km Length=0.027471100000000002 bus1=p4udm22254.1.2 bus2=p4ulv26627.1.2 switch=n enabled=y phases=2 Linecode=1P_OH_AL_4/0_Zuzara_0_416_0_2_2_2_2

New Line.l(r:p4udm22254-p4udt9140lv) Units=km Length=0.019481500000000002 bus1=p4udt9140lv.1.2 bus2=p4udm22254.1.2 switch=n enabled=y phases=2 Linecode=1P_OH_AL_2/0_Rucina_0_416_0_2_2_2_2

New Line.l(r:p4udt9439lv-p4ulv11723) Units=km Length=0.0415813 bus1=p4udt9439lv.1.2 bus2=p4ulv11723.1.2 switch=n enabled=y phases=2 Linecode=1P_OH_AL_4/0_Zuzara_0_416_0_2_2_2_2

New Line.l(r:p4udt9440lv-p4ulv11724) Units=km Length=0.0406601 bus1=p4udt9440lv.1.2 bus2=p4ulv11724.1.2 switch=n enabled=y phases=2 Linecode=1P_UG_AL_2/0_Converse_0_416_0_2_2_2_2

New Line.l(r:p4udm22875-p4ulv37656) Units=km Length=0.036277 bus1=p4udm22875.1.2 bus2=p4ulv37656.1.2 switch=n enabled=y phases=2 Linecode=1P_UG_AL_4/0_Sweetbriar_0_416_0_2_2_2_2

New Line.l(r:p4udm22875-p4udt9440lv) Units=km Length=0.00954063 bus1=p4udt9440lv.1.2 bus2=p4udm22875.1.2 switch=n enabled=y phases=2 Linecode=1P_UG_AL_4/0_Sweetbriar_0_416_0_2_2_2_2

New Line.l(r:p4udm22876-p4ulv38524) Units=km Length=0.0330964 bus1=p4udm22876.1.2 bus2=p4ulv38524.1.2 switch=n enabled=y phases=2 Linecode=1P_UG_AL_4/0_Sweetbriar_0_416_0_2_2_2_2

New Line.l(r:p4udm22876-p4udt9440lv) Units=km Length=0.019071300000000003 bus1=p4udt9440lv.1.2 bus2=p4udm22876.1.2 switch=n enabled=y phases=2 Linecode=1P_UG_AL_4/0_Sweetbriar_0_416_0_2_2_2_2

New Line.l(r:p4udt9714lv-p4ulv12124) Units=km Length=0.030708500000000003 bus1=p4udt9714lv.1.2 bus2=p4ulv12124.1.2 switch=n enabled=y phases=2 Linecode=1P_OH_AL_4/0_Zuzara_0_416_0_2_2_2_2

New Line.l(r:p4udm23437-p4ulv21204) Units=km Length=0.031862 bus1=p4udm23437.1.2 bus2=p4ulv21204.1.2 switch=n enabled=y phases=2 Linecode=1P_OH_AL_4/0_Zuzara_0_416_0_2_2_2_2

New Line.l(r:p4udm23437-p4udt9714lv) Units=km Length=0.0168082 bus1=p4udt9714lv.1.2 bus2=p4udm23437.1.2 switch=n enabled=y phases=2 Linecode=1P_OH_AL_2/0_Rucina_0_416_0_2_2_2_2

New Line.l(r:p4udt9715lv-p4ulv12125) Units=km Length=0.0173442 bus1=p4udt9715lv.1.2 bus2=p4ulv12125.1.2 switch=n enabled=y phases=2 Linecode=1P_OH_AL_2/0_Rucina_0_416_0_2_2_2_2

New Line.l(r:p4udm23990-p4ulv12567) Units=km Length=0.019541100000000002 bus1=p4udm23990.1.2 bus2=p4ulv12567.1.2 switch=n enabled=y phases=2 Linecode=1P_OH_AL_2/0_Rucina_0_416_0_2_2_2_2

New Line.l(r:p4udm23990-p4udt9987lv) Units=km Length=0.0368613 bus1=p4udt9987lv.1.2 bus2=p4udm23990.1.2 switch=n enabled=y phases=2 Linecode=1P_OH_AL_4/0_Zuzara_0_416_0_2_2_2_2

New Line.l(r:p4udm23991-p4ulv18213) Units=km Length=0.0172932 bus1=p4udm23991.1.2 bus2=p4ulv18213.1.2 switch=n enabled=y phases=2 Linecode=1P_OH_AL_2/0_Rucina_0_416_0_2_2_2_2

New Line.l(r:p4udm23991-p4udt9987lv) Units=km Length=0.0467692 bus1=p4udt9987lv.1.2 bus2=p4udm23991.1.2 switch=n enabled=y phases=2 Linecode=1P_OH_AL_4/0_Zuzara_0_416_0_2_2_2_2
