New Line.l(r:p3udt486lv-p3ulv634) Units=km Length=0.015073400000000002 bus1=p3udt486lv.1.2 bus2=p3ulv634.1.2 switch=n enabled=y phases=2 Linecode=1P_UG_AL_1/0_Brenau_0_416_0_2_2_2_2

New Line.l(r:p3udm1626-p3ulv45947) Units=km Length=0.0154936 bus1=p3udm1626.1.2 bus2=p3ulv45947.1.2 switch=n enabled=y phases=2 Linecode=1P_UG_AL_1/0_Brenau_0_416_0_2_2_2_2

New Line.l(r:p3udm1626-p3udt486lv) Units=km Length=0.00958541 bus1=p3udt486lv.1.2 bus2=p3udm1626.1.2 switch=n enabled=y phases=2 Linecode=1P_UG_AL_1/0_Brenau_0_416_0_2_2_2_2

New Line.l(r:p3udm1646-p3ulv20192) Units=km Length=0.0152725 bus1=p3udm1646.1.2 bus2=p3ulv20192.1.2 switch=n enabled=y phases=2 Linecode=1P_UG_AL_2/0_Converse_0_416_0_2_2_2_2

New Line.l(r:p3udm1645-p3ulv640) Units=km Length=0.0198763 bus1=p3udm1645.1.2 bus2=p3ulv640.1.2 switch=n enabled=y phases=2 Linecode=1P_UG_AL_2/0_Converse_0_416_0_2_2_2_2

New Line.l(r:p3udm1645-p3ulv55149) Units=km Length=0.0160987 bus1=p3udm1645.1.2 bus2=p3ulv55149.1.2 switch=n enabled=y phases=2 Linecode=1P_UG_AL_1/0_Brenau_0_416_0_2_2_2_2

New Line.l(r:p3udm1645-p3udm1646) Units=km Length=0.0071353 bus1=p3udm1646.1.2 bus2=p3udm1645.1.2 switch=n enabled=y phases=2 Linecode=1P_UG_AL_4/0_Sweetbriar_0_416_0_2_2_2_2

New Line.l(r:p3udm1646-p3udt492lv) Units=km Length=0.008807190000000001 bus1=p3udt492lv.1.2 bus2=p3udm1646.1.2 switch=n enabled=y phases=2 Linecode=1P_UG_AL_4/0_Sweetbriar_0_416_0_2_2_2_2

New Line.l(r:p3udm1647-p3ulv41227) Units=km Length=0.0186705 bus1=p3udm1647.1.2 bus2=p3ulv41227.1.2 switch=n enabled=y phases=2 Linecode=1P_UG_AL_1/0_Brenau_0_416_0_2_2_2_2

New Line.l(r:p3udm1647-p3udt492lv) Units=km Length=0.05131820000000001 bus1=p3udt492lv.1.2 bus2=p3udm1647.1.2 switch=n enabled=y phases=2 Linecode=1P_UG_AL_1/0_Brenau_0_416_0_2_2_2_2

New Line.l(r:p3udt493lv-p3ulv641) Units=km Length=0.018571200000000003 bus1=p3udt493lv.1.2 bus2=p3ulv641.1.2 switch=n enabled=y phases=2 Linecode=1P_UG_AL_1/0_Brenau_0_416_0_2_2_2_2

New Line.l(r:p3udt494lv-p3ulv642) Units=km Length=0.0277408 bus1=p3udt494lv.1.2 bus2=p3ulv642.1.2 switch=n enabled=y phases=2 Linecode=1P_UG_AL_1/0_Brenau_0_416_0_2_2_2_2

New Line.l(r:p3udt494lv-p3ulv14778) Units=km Length=0.0250904 bus1=p3udt494lv.1.2 bus2=p3ulv14778.1.2 switch=n enabled=y phases=2 Linecode=1P_UG_AL_2/0_Converse_0_416_0_2_2_2_2

New Line.l(r:p3udt494lv-p3ulv52028) Units=km Length=0.0282643 bus1=p3udt494lv.1.2 bus2=p3ulv52028.1.2 switch=n enabled=y phases=2 Linecode=1P_UG_AL_2/0_Converse_0_416_0_2_2_2_2

New Line.l(r:p3udm1653-p3ulv78894) Units=km Length=0.0238313 bus1=p3udm1653.1.2 bus2=p3ulv78894.1.2 switch=n enabled=y phases=2 Linecode=1P_UG_AL_1/0_Brenau_0_416_0_2_2_2_2

New Line.l(r:p3udm1653-p3udt494lv) Units=km Length=0.00973347 bus1=p3udt494lv.1.2 bus2=p3udm1653.1.2 switch=n enabled=y phases=2 Linecode=1P_UG_AL_1/0_Brenau_0_416_0_2_2_2_2

New Line.l(r:p3udt497lv-p3ulv645) Units=km Length=0.0194905 bus1=p3udt497lv.1.2 bus2=p3ulv645.1.2 switch=n enabled=y phases=2 Linecode=1P_UG_AL_1/0_Brenau_0_416_0_2_2_2_2

New Line.l(r:p3udt498lv-p3ulv15573) Units=km Length=0.026142100000000005 bus1=p3udt498lv.1.2 bus2=p3ulv15573.1.2 switch=n enabled=y phases=2 Linecode=1P_UG_AL_1/0_Brenau_0_416_0_2_2_2_2

New Line.l(r:p3udt498lv-p3ulv32748) Units=km Length=0.024568800000000002 bus1=p3udt498lv.1.2 bus2=p3ulv32748.1.2 switch=n enabled=y phases=2 Linecode=1P_UG_AL_1/0_Brenau_0_416_0_2_2_2_2

New Line.l(r:p3udm1661-p3ulv646) Units=km Length=0.0240066 bus1=p3udm1661.1.2 bus2=p3ulv646.1.2 switch=n enabled=y phases=2 Linecode=1P_UG_AL_1/0_Brenau_0_416_0_2_2_2_2

New Line.l(r:p3udm1661-p3udt498lv) Units=km Length=0.00616066 bus1=p3udt498lv.1.2 bus2=p3udm1661.1.2 switch=n enabled=y phases=2 Linecode=1P_UG_AL_1/0_Brenau_0_416_0_2_2_2_2

New Line.l(r:p3udt499lv-p3ulv647) Units=km Length=0.0234172 bus1=p3udt499lv.1.2 bus2=p3ulv647.1.2 switch=n enabled=y phases=2 Linecode=1P_UG_AL_1/0_Brenau_0_416_0_2_2_2_2

New Line.l(r:p3udt500lv-p3ulv3782) Units=km Length=0.0216179 bus1=p3udt500lv.1.2 bus2=p3ulv3782.1.2 switch=n enabled=y phases=2 Linecode=1P_UG_AL_1/0_Brenau_0_416_0_2_2_2_2

New Line.l(r:p3udm1665-p3ulv648) Units=km Length=0.0167002 bus1=p3udm1665.1.2 bus2=p3ulv648.1.2 switch=n enabled=y phases=2 Linecode=1P_UG_AL_1/0_Brenau_0_416_0_2_2_2_2

New Line.l(r:p3udm1665-p3udt500lv) Units=km Length=0.037517600000000005 bus1=p3udt500lv.1.2 bus2=p3udm1665.1.2 switch=n enabled=y phases=2 Linecode=1P_UG_AL_1/0_Brenau_0_416_0_2_2_2_2

New Line.l(r:p3udm1667-p3ulv50518) Units=km Length=0.0252098 bus1=p3udm1667.1.2 bus2=p3ulv50518.1.2 switch=n enabled=y phases=2 Linecode=1P_UG_AL_1/0_Brenau_0_416_0_2_2_2_2

New Line.l(r:p3udm1667-p3udt500lv) Units=km Length=0.0336485 bus1=p3udt500lv.1.2 bus2=p3udm1667.1.2 switch=n enabled=y phases=2 Linecode=1P_UG_AL_1/0_Brenau_0_416_0_2_2_2_2

New Line.l(r:p3udt501lv-p3ulv24958) Units=km Length=0.0183058 bus1=p3udt501lv.1.2 bus2=p3ulv24958.1.2 switch=n enabled=y phases=2 Linecode=1P_UG_AL_1/0_Brenau_0_416_0_2_2_2_2

New Line.l(r:p3udt501lv-p3ulv45202) Units=km Length=0.0120024 bus1=p3udt501lv.1.2 bus2=p3ulv45202.1.2 switch=n enabled=y phases=2 Linecode=1P_UG_AL_1/0_Brenau_0_416_0_2_2_2_2

New Line.l(r:p3udm1668-p3ulv649) Units=km Length=0.0288546 bus1=p3udm1668.1.2 bus2=p3ulv649.1.2 switch=n enabled=y phases=2 Linecode=1P_UG_AL_1/0_Brenau_0_416_0_2_2_2_2

New Line.l(r:p3udm1668-p3udt501lv) Units=km Length=0.00969954 bus1=p3udt501lv.1.2 bus2=p3udm1668.1.2 switch=n enabled=y phases=2 Linecode=1P_UG_AL_1/0_Brenau_0_416_0_2_2_2_2

New Line.l(r:p3udm4178-p3ulv1388) Units=km Length=0.0164224 bus1=p3udm4178.1.2 bus2=p3ulv1388.1.2 switch=n enabled=y phases=2 Linecode=1P_UG_AL_1/0_Brenau_0_416_0_2_2_2_2

New Line.l(r:p3udm4178-p3udt1215lv) Units=km Length=0.0284573 bus1=p3udt1215lv.1.2 bus2=p3udm4178.1.2 switch=n enabled=y phases=2 Linecode=1P_UG_AL_1/0_Brenau_0_416_0_2_2_2_2

New Line.l(r:p3udm4179-p3ulv6967) Units=km Length=0.0123921 bus1=p3udm4179.1.2 bus2=p3ulv6967.1.2 switch=n enabled=y phases=2 Linecode=1P_UG_AL_1/0_Brenau_0_416_0_2_2_2_2

New Line.l(r:p3udm4179-p3ulv16365) Units=km Length=0.02373 bus1=p3udm4179.1.2 bus2=p3ulv16365.1.2 switch=n enabled=y phases=2 Linecode=1P_UG_AL_1/0_Brenau_0_416_0_2_2_2_2

New Line.l(r:p3udm4179-p3udt1215lv) Units=km Length=0.009436870000000002 bus1=p3udt1215lv.1.2 bus2=p3udm4179.1.2 switch=n enabled=y phases=2 Linecode=1P_UG_AL_4/0_Sweetbriar_0_416_0_2_2_2_2

New Line.l(r:p3udt1216lv-p3ulv1389) Units=km Length=0.0188833 bus1=p3udt1216lv.1.2 bus2=p3ulv1389.1.2 switch=n enabled=y phases=2 Linecode=1P_UG_AL_1/0_Brenau_0_416_0_2_2_2_2

New Line.l(r:p3udt1217lv-p3ulv78074) Units=km Length=0.0148489 bus1=p3udt1217lv.1.2 bus2=p3ulv78074.1.2 switch=n enabled=y phases=2 Linecode=1P_UG_AL_1/0_Brenau_0_416_0_2_2_2_2

New Line.l(r:p3udm4182-p3ulv1390) Units=km Length=0.0232304 bus1=p3udm4182.1.2 bus2=p3ulv1390.1.2 switch=n enabled=y phases=2 Linecode=1P_UG_AL_1/0_Brenau_0_416_0_2_2_2_2

New Line.l(r:p3udm4182-p3udt1217lv) Units=km Length=0.0250603 bus1=p3udt1217lv.1.2 bus2=p3udm4182.1.2 switch=n enabled=y phases=2 Linecode=1P_UG_AL_1/0_Brenau_0_416_0_2_2_2_2

New Line.l(r:p3udm4183-p3ulv30328) Units=km Length=0.0145832 bus1=p3udm4183.1.2 bus2=p3ulv30328.1.2 switch=n enabled=y phases=2 Linecode=1P_UG_AL_1/0_Brenau_0_416_0_2_2_2_2

New Line.l(r:p3udm4183-p3udt1217lv) Units=km Length=0.00844569 bus1=p3udt1217lv.1.2 bus2=p3udm4183.1.2 switch=n enabled=y phases=2 Linecode=1P_UG_AL_1/0_Brenau_0_416_0_2_2_2_2

New Line.l(r:p3udt1218lv-p3ulv75764) Units=km Length=0.0170478 bus1=p3udt1218lv.1.2 bus2=p3ulv75764.1.2 switch=n enabled=y phases=2 Linecode=1P_UG_AL_1/0_Brenau_0_416_0_2_2_2_2

New Line.l(r:p3udm4186-p3ulv47505) Units=km Length=0.0152408 bus1=p3udm4186.1.2 bus2=p3ulv47505.1.2 switch=n enabled=y phases=2 Linecode=1P_UG_AL_1/0_Brenau_0_416_0_2_2_2_2

New Line.l(r:p3udm4185-p3ulv1391) Units=km Length=0.0159482 bus1=p3udm4185.1.2 bus2=p3ulv1391.1.2 switch=n enabled=y phases=2 Linecode=1P_UG_AL_1/0_Brenau_0_416_0_2_2_2_2

New Line.l(r:p3udm4185-p3udm4186) Units=km Length=0.053784700000000005 bus1=p3udm4186.1.2 bus2=p3udm4185.1.2 switch=n enabled=y phases=2 Linecode=1P_UG_AL_1/0_Brenau_0_416_0_2_2_2_2

New Line.l(r:p3udm4186-p3udt1218lv) Units=km Length=0.00844569 bus1=p3udt1218lv.1.2 bus2=p3udm4186.1.2 switch=n enabled=y phases=2 Linecode=1P_UG_AL_4/0_Sweetbriar_0_416_0_2_2_2_2

New Line.l(r:p3udm4187-p3ulv61200) Units=km Length=0.016472200000000003 bus1=p3udm4187.1.2 bus2=p3ulv61200.1.2 switch=n enabled=y phases=2 Linecode=1P_UG_AL_1/0_Brenau_0_416_0_2_2_2_2

New Line.l(r:p3udm4187-p3ulv68112) Units=km Length=0.0155557 bus1=p3udm4187.1.2 bus2=p3ulv68112.1.2 switch=n enabled=y phases=2 Linecode=1P_UG_AL_1/0_Brenau_0_416_0_2_2_2_2

New Line.l(r:p3udm4187-p3udt1218lv) Units=km Length=0.017012 bus1=p3udt1218lv.1.2 bus2=p3udm4187.1.2 switch=n enabled=y phases=2 Linecode=1P_UG_AL_4/0_Sweetbriar_0_416_0_2_2_2_2

New Line.l(r:p3udt1219lv-p3ulv1392) Units=km Length=0.0120436 bus1=p3udt1219lv.1.2 bus2=p3ulv1392.1.2 switch=n enabled=y phases=2 Linecode=1P_UG_AL_1/0_Brenau_0_416_0_2_2_2_2

New Line.l(r:p3udm4192-p3ulv47506) Units=km Length=0.01206 bus1=p3udm4192.1.2 bus2=p3ulv47506.1.2 switch=n enabled=y phases=2 Linecode=1P_UG_AL_1/0_Brenau_0_416_0_2_2_2_2

New Line.l(r:p3udm4191-p3ulv5358) Units=km Length=0.0166282 bus1=p3udm4191.1.2 bus2=p3ulv5358.1.2 switch=n enabled=y phases=2 Linecode=1P_UG_AL_1/0_Brenau_0_416_0_2_2_2_2

New Line.l(r:p3udm4191-p3udm4192) Units=km Length=0.00991001 bus1=p3udm4192.1.2 bus2=p3udm4191.1.2 switch=n enabled=y phases=2 Linecode=1P_UG_AL_1/0_Brenau_0_416_0_2_2_2_2

New Line.l(r:p3udm4192-p3udt1219lv) Units=km Length=0.00991 bus1=p3udt1219lv.1.2 bus2=p3udm4192.1.2 switch=n enabled=y phases=2 Linecode=1P_UG_AL_4/0_Sweetbriar_0_416_0_2_2_2_2

New Line.l(r:p3udm4193-p3ulv79651) Units=km Length=0.016982 bus1=p3udm4193.1.2 bus2=p3ulv79651.1.2 switch=n enabled=y phases=2 Linecode=1P_UG_AL_1/0_Brenau_0_416_0_2_2_2_2

New Line.l(r:p3udm4193-p3udt1219lv) Units=km Length=0.00991001 bus1=p3udt1219lv.1.2 bus2=p3udm4193.1.2 switch=n enabled=y phases=2 Linecode=1P_UG_AL_1/0_Brenau_0_416_0_2_2_2_2

New Line.l(r:p3udt1222lv-p3ulv1395) Units=km Length=0.059467700000000005 bus1=p3udt1222lv.1.2 bus2=p3ulv1395.1.2 switch=n enabled=y phases=2 Linecode=1P_OH_AL_4/0_Zuzara_0_416_0_2_2_2_2

New Line.l(r:p3udt1226lv-p3ulv1399) Units=km Length=0.0160934 bus1=p3udt1226lv.1.2 bus2=p3ulv1399.1.2 switch=n enabled=y phases=2 Linecode=1P_UG_AL_1/0_Brenau_0_416_0_2_2_2_2

New Line.l(r:p3udm4215-p3ulv24149) Units=km Length=0.0192239 bus1=p3udm4215.1.2 bus2=p3ulv24149.1.2 switch=n enabled=y phases=2 Linecode=1P_UG_AL_1/0_Brenau_0_416_0_2_2_2_2

New Line.l(r:p3udm4215-p3ulv49765) Units=km Length=0.0213025 bus1=p3udm4215.1.2 bus2=p3ulv49765.1.2 switch=n enabled=y phases=2 Linecode=1P_UG_AL_1/0_Brenau_0_416_0_2_2_2_2

New Line.l(r:p3udm4214-p3ulv1400) Units=km Length=0.0127431 bus1=p3udm4214.1.2 bus2=p3ulv1400.1.2 switch=n enabled=y phases=2 Linecode=1P_UG_AL_1/0_Brenau_0_416_0_2_2_2_2

New Line.l(r:p3udm4214-p3udm4215) Units=km Length=0.019429 bus1=p3udm4215.1.2 bus2=p3udm4214.1.2 switch=n enabled=y phases=2 Linecode=1P_UG_AL_1/0_Brenau_0_416_0_2_2_2_2

New Line.l(r:p3udm4215-p3udt1227lv) Units=km Length=0.00935471 bus1=p3udt1227lv.1.2 bus2=p3udm4215.1.2 switch=n enabled=y phases=2 Linecode=1P_UG_AL_4/0_Sweetbriar_0_416_0_2_2_2_2

New Line.l(r:p3udm4218-p3ulv75778) Units=km Length=0.0173386 bus1=p3udm4218.1.2 bus2=p3ulv75778.1.2 switch=n enabled=y phases=2 Linecode=1P_UG_AL_1/0_Brenau_0_416_0_2_2_2_2

New Line.l(r:p3udm4216-p3ulv25759) Units=km Length=0.0185999 bus1=p3udm4216.1.2 bus2=p3ulv25759.1.2 switch=n enabled=y phases=2 Linecode=1P_UG_AL_1/0_Brenau_0_416_0_2_2_2_2

New Line.l(r:p3udm4216-p3udm4218) Units=km Length=0.009345190000000001 bus1=p3udm4218.1.2 bus2=p3udm4216.1.2 switch=n enabled=y phases=2 Linecode=1P_UG_AL_1/0_Brenau_0_416_0_2_2_2_2

New Line.l(r:p3udm4218-p3udt1227lv) Units=km Length=0.0187064 bus1=p3udt1227lv.1.2 bus2=p3udm4218.1.2 switch=n enabled=y phases=2 Linecode=1P_UG_AL_4/0_Sweetbriar_0_416_0_2_2_2_2

New Line.l(r:p3udt1254lv-p3ulv1427) Units=km Length=0.0499216 bus1=p3udt1254lv.1.2 bus2=p3ulv1427.1.2 switch=n enabled=y phases=2 Linecode=1P_OH_AL_4/0_Zuzara_0_416_0_2_2_2_2

New Line.l(r:p3udt1254lv-p3ulv9319) Units=km Length=0.0364314 bus1=p3udt1254lv.1.2 bus2=p3ulv9319.1.2 switch=n enabled=y phases=2 Linecode=1P_OH_AL_4/0_Zuzara_0_416_0_2_2_2_2

New Line.l(r:p3udt1254lv-p3ulv13256) Units=km Length=0.0411729 bus1=p3udt1254lv.1.2 bus2=p3ulv13256.1.2 switch=n enabled=y phases=2 Linecode=1P_OH_AL_4/0_Zuzara_0_416_0_2_2_2_2

New Line.l(r:p3udt1255lv-p3ulv1428) Units=km Length=0.0318237 bus1=p3udt1255lv.1.2 bus2=p3ulv1428.1.2 switch=n enabled=y phases=2 Linecode=1P_UG_AL_1/0_Brenau_0_416_0_2_2_2_2

New Line.l(r:p3udm4313-p3ulv11738) Units=km Length=0.0242806 bus1=p3udm4313.1.2 bus2=p3ulv11738.1.2 switch=n enabled=y phases=2 Linecode=1P_UG_AL_1/0_Brenau_0_416_0_2_2_2_2

New Line.l(r:p3udm4313-p3udt1255lv) Units=km Length=0.0159821 bus1=p3udt1255lv.1.2 bus2=p3udm4313.1.2 switch=n enabled=y phases=2 Linecode=1P_UG_AL_1/0_Brenau_0_416_0_2_2_2_2

New Line.l(r:p3udm4314-p3ulv45223) Units=km Length=0.017859900000000005 bus1=p3udm4314.1.2 bus2=p3ulv45223.1.2 switch=n enabled=y phases=2 Linecode=1P_UG_AL_1/0_Brenau_0_416_0_2_2_2_2

New Line.l(r:p3udm4314-p3udt1255lv) Units=km Length=0.00799545 bus1=p3udt1255lv.1.2 bus2=p3udm4314.1.2 switch=n enabled=y phases=2 Linecode=1P_UG_AL_1/0_Brenau_0_416_0_2_2_2_2

New Line.l(r:p3udt1256lv-p3ulv1429) Units=km Length=0.023765600000000005 bus1=p3udt1256lv.1.2 bus2=p3ulv1429.1.2 switch=n enabled=y phases=2 Linecode=1P_UG_AL_1/0_Brenau_0_416_0_2_2_2_2

New Line.l(r:p3udt1256lv-p3ulv6180) Units=km Length=0.0267017 bus1=p3udt1256lv.1.2 bus2=p3ulv6180.1.2 switch=n enabled=y phases=2 Linecode=1P_UG_AL_1/0_Brenau_0_416_0_2_2_2_2

New Line.l(r:p3udt1256lv-p3ulv8577) Units=km Length=0.024075 bus1=p3udt1256lv.1.2 bus2=p3ulv8577.1.2 switch=n enabled=y phases=2 Linecode=1P_UG_AL_1/0_Brenau_0_416_0_2_2_2_2

New Line.l(r:p3udt1256lv-p3ulv68962) Units=km Length=0.0258527 bus1=p3udt1256lv.1.2 bus2=p3ulv68962.1.2 switch=n enabled=y phases=2 Linecode=1P_UG_AL_1/0_Brenau_0_416_0_2_2_2_2

New Line.l(r:p3udm4318-p3ulv55171) Units=km Length=0.0157952 bus1=p3udm4318.1.2 bus2=p3ulv55171.1.2 switch=n enabled=y phases=2 Linecode=1P_UG_AL_1/0_Brenau_0_416_0_2_2_2_2

New Line.l(r:p3udm4318-p3udt1256lv) Units=km Length=0.0824982 bus1=p3udt1256lv.1.2 bus2=p3udm4318.1.2 switch=n enabled=y phases=2 Linecode=1P_UG_AL_1/0_Brenau_0_416_0_2_2_2_2

New Line.l(r:p3udm4324-p3ulv1431) Units=km Length=0.0183792 bus1=p3udm4324.1.2 bus2=p3ulv1431.1.2 switch=n enabled=y phases=2 Linecode=1P_UG_AL_1/0_Brenau_0_416_0_2_2_2_2

New Line.l(r:p3udm4324-p3udt1258lv) Units=km Length=0.0397967 bus1=p3udt1258lv.1.2 bus2=p3udm4324.1.2 switch=n enabled=y phases=2 Linecode=1P_UG_AL_1/0_Brenau_0_416_0_2_2_2_2

New Line.l(r:p3udm4325-p3ulv23348) Units=km Length=0.0156301 bus1=p3udm4325.1.2 bus2=p3ulv23348.1.2 switch=n enabled=y phases=2 Linecode=1P_UG_AL_1/0_Brenau_0_416_0_2_2_2_2

New Line.l(r:p3udm4326-p3ulv49762) Units=km Length=0.0159906 bus1=p3udm4326.1.2 bus2=p3ulv49762.1.2 switch=n enabled=y phases=2 Linecode=1P_UG_AL_1/0_Brenau_0_416_0_2_2_2_2

New Line.l(r:p3udm4325-p3udm4326) Units=km Length=0.00995163 bus1=p3udm4325.1.2 bus2=p3udm4326.1.2 switch=n enabled=y phases=2 Linecode=1P_UG_AL_1/0_Brenau_0_416_0_2_2_2_2

New Line.l(r:p3udm4325-p3udt1258lv) Units=km Length=0.00995163 bus1=p3udt1258lv.1.2 bus2=p3udm4325.1.2 switch=n enabled=y phases=2 Linecode=1P_UG_AL_4/0_Sweetbriar_0_416_0_2_2_2_2

New Line.l(r:p3udt1947lv-p3ulv24948) Units=km Length=0.0189907 bus1=p3udt1947lv.1.2 bus2=p3ulv24948.1.2 switch=n enabled=y phases=2 Linecode=1P_OH_AL_2/0_Rucina_0_416_0_2_2_2_2

New Line.l(r:p3udt1947lv-p3ulv45187) Units=km Length=0.0152859 bus1=p3udt1947lv.1.2 bus2=p3ulv45187.1.2 switch=n enabled=y phases=2 Linecode=1P_OH_AL_2/0_Rucina_0_416_0_2_2_2_2

New Line.l(r:p3udm6726-p3ulv2160) Units=km Length=0.0141895 bus1=p3udm6726.1.2 bus2=p3ulv2160.1.2 switch=n enabled=y phases=2 Linecode=1P_OH_AL_2/0_Rucina_0_416_0_2_2_2_2

New Line.l(r:p3udm6726-p3udt1947lv) Units=km Length=0.018484100000000003 bus1=p3udt1947lv.1.2 bus2=p3udm6726.1.2 switch=n enabled=y phases=2 Linecode=1P_OH_AL_2/0_Rucina_0_416_0_2_2_2_2

New Line.l(r:p3udt1956lv-p3ulv53580) Units=km Length=0.0158846 bus1=p3udt1956lv.1.2 bus2=p3ulv53580.1.2 switch=n enabled=y phases=2 Linecode=1P_UG_AL_1/0_Brenau_0_416_0_2_2_2_2

New Line.l(r:p3udt1956lv-p3ulv68128) Units=km Length=0.0187335 bus1=p3udt1956lv.1.2 bus2=p3ulv68128.1.2 switch=n enabled=y phases=2 Linecode=1P_UG_AL_1/0_Brenau_0_416_0_2_2_2_2

New Line.l(r:p3udm6755-p3ulv55140) Units=km Length=0.0163762 bus1=p3udm6755.1.2 bus2=p3ulv55140.1.2 switch=n enabled=y phases=2 Linecode=1P_UG_AL_1/0_Brenau_0_416_0_2_2_2_2

New Line.l(r:p3udm6753-p3ulv2169) Units=km Length=0.01569 bus1=p3udm6753.1.2 bus2=p3ulv2169.1.2 switch=n enabled=y phases=2 Linecode=1P_UG_AL_1/0_Brenau_0_416_0_2_2_2_2

New Line.l(r:p3udm6753-p3udm6755) Units=km Length=0.00975236 bus1=p3udm6755.1.2 bus2=p3udm6753.1.2 switch=n enabled=y phases=2 Linecode=1P_UG_AL_1/0_Brenau_0_416_0_2_2_2_2

New Line.l(r:p3udm6755-p3udt1956lv) Units=km Length=0.00974407 bus1=p3udt1956lv.1.2 bus2=p3udm6755.1.2 switch=n enabled=y phases=2 Linecode=1P_UG_AL_4/0_Sweetbriar_0_416_0_2_2_2_2

New Line.l(r:p3udm6756-p3ulv67358) Units=km Length=0.0141269 bus1=p3udm6756.1.2 bus2=p3ulv67358.1.2 switch=n enabled=y phases=2 Linecode=1P_UG_AL_1/0_Brenau_0_416_0_2_2_2_2

New Line.l(r:p3udm6756-p3udt1956lv) Units=km Length=0.0292587 bus1=p3udt1956lv.1.2 bus2=p3udm6756.1.2 switch=n enabled=y phases=2 Linecode=1P_UG_AL_1/0_Brenau_0_416_0_2_2_2_2

New Line.l(r:p3udt1957lv-p3ulv2170) Units=km Length=0.027702 bus1=p3udt1957lv.1.2 bus2=p3ulv2170.1.2 switch=n enabled=y phases=2 Linecode=1P_UG_AL_2/0_Converse_0_416_0_2_2_2_2

New Line.l(r:p3udt1957lv-p3ulv36589) Units=km Length=0.03207 bus1=p3udt1957lv.1.2 bus2=p3ulv36589.1.2 switch=n enabled=y phases=2 Linecode=1P_UG_AL_1/0_Brenau_0_416_0_2_2_2_2

New Line.l(r:p3udt1957lv-p3ulv38095) Units=km Length=0.0311359 bus1=p3udt1957lv.1.2 bus2=p3ulv38095.1.2 switch=n enabled=y phases=2 Linecode=1P_UG_AL_1/0_Brenau_0_416_0_2_2_2_2

New Line.l(r:p3udm6761-p3ulv2171) Units=km Length=0.015461300000000002 bus1=p3udm6761.1.2 bus2=p3ulv2171.1.2 switch=n enabled=y phases=2 Linecode=1P_UG_AL_1/0_Brenau_0_416_0_2_2_2_2

New Line.l(r:p3udm6761-p3udt1958lv) Units=km Length=0.0371959 bus1=p3udt1958lv.1.2 bus2=p3udm6761.1.2 switch=n enabled=y phases=2 Linecode=1P_UG_AL_1/0_Brenau_0_416_0_2_2_2_2

New Line.l(r:p3udm6763-p3ulv38846) Units=km Length=0.023333 bus1=p3udm6763.1.2 bus2=p3ulv38846.1.2 switch=n enabled=y phases=2 Linecode=1P_UG_AL_1/0_Brenau_0_416_0_2_2_2_2

New Line.l(r:p3udm6762-p3ulv5371) Units=km Length=0.0320594 bus1=p3udm6762.1.2 bus2=p3ulv5371.1.2 switch=n enabled=y phases=2 Linecode=1P_UG_AL_1/0_Brenau_0_416_0_2_2_2_2

New Line.l(r:p3udm6762-p3udm6763) Units=km Length=0.00930155 bus1=p3udm6763.1.2 bus2=p3udm6762.1.2 switch=n enabled=y phases=2 Linecode=1P_UG_AL_1/0_Brenau_0_416_0_2_2_2_2

New Line.l(r:p3udm6763-p3udt1958lv) Units=km Length=0.00929156 bus1=p3udt1958lv.1.2 bus2=p3udm6763.1.2 switch=n enabled=y phases=2 Linecode=1P_UG_AL_4/0_Sweetbriar_0_416_0_2_2_2_2

New Line.l(r:p3udt1959lv-p3ulv2172) Units=km Length=0.0274859 bus1=p3udt1959lv.1.2 bus2=p3ulv2172.1.2 switch=n enabled=y phases=2 Linecode=1P_UG_AL_1/0_Brenau_0_416_0_2_2_2_2

New Line.l(r:p3udt1959lv-p3ulv30342) Units=km Length=0.0311637 bus1=p3udt1959lv.1.2 bus2=p3ulv30342.1.2 switch=n enabled=y phases=2 Linecode=1P_UG_AL_1/0_Brenau_0_416_0_2_2_2_2

New Line.l(r:p3udt1959lv-p3ulv41218) Units=km Length=0.0241191 bus1=p3udt1959lv.1.2 bus2=p3ulv41218.1.2 switch=n enabled=y phases=2 Linecode=1P_UG_AL_1/0_Brenau_0_416_0_2_2_2_2

New Line.l(r:p3udt1959lv-p3ulv79664) Units=km Length=0.0337513 bus1=p3udt1959lv.1.2 bus2=p3ulv79664.1.2 switch=n enabled=y phases=2 Linecode=1P_UG_AL_1/0_Brenau_0_416_0_2_2_2_2

New Line.l(r:p3udm6767-p3ulv74258) Units=km Length=0.0203524 bus1=p3udm6767.1.2 bus2=p3ulv74258.1.2 switch=n enabled=y phases=2 Linecode=1P_UG_AL_1/0_Brenau_0_416_0_2_2_2_2

New Line.l(r:p3udm6767-p3udt1959lv) Units=km Length=0.00891898 bus1=p3udt1959lv.1.2 bus2=p3udm6767.1.2 switch=n enabled=y phases=2 Linecode=1P_UG_AL_1/0_Brenau_0_416_0_2_2_2_2

New Line.l(r:p3udt1983lv-p3ulv2198) Units=km Length=0.0282604 bus1=p3udt1983lv.1.2 bus2=p3ulv2198.1.2 switch=n enabled=y phases=2 Linecode=1P_OH_AL_4/0_Zuzara_0_416_0_2_2_2_2

New Line.l(r:p3udt1985lv-p3ulv2200) Units=km Length=0.016589 bus1=p3udt1985lv.1.2 bus2=p3ulv2200.1.2 switch=n enabled=y phases=2 Linecode=1P_UG_AL_1/0_Brenau_0_416_0_2_2_2_2

New Line.l(r:p3udm6854-p3ulv2201) Units=km Length=0.0174334 bus1=p3udm6854.1.2 bus2=p3ulv2201.1.2 switch=n enabled=y phases=2 Linecode=1P_UG_AL_1/0_Brenau_0_416_0_2_2_2_2

New Line.l(r:p3udm6854-p3udt1986lv) Units=km Length=0.027282 bus1=p3udt1986lv.1.2 bus2=p3udm6854.1.2 switch=n enabled=y phases=2 Linecode=1P_UG_AL_1/0_Brenau_0_416_0_2_2_2_2

New Line.l(r:p3udm6855-p3ulv55889) Units=km Length=0.0172899 bus1=p3udm6855.1.2 bus2=p3ulv55889.1.2 switch=n enabled=y phases=2 Linecode=1P_UG_AL_1/0_Brenau_0_416_0_2_2_2_2

New Line.l(r:p3udm6855-p3ulv62725) Units=km Length=0.0145664 bus1=p3udm6855.1.2 bus2=p3ulv62725.1.2 switch=n enabled=y phases=2 Linecode=1P_UG_AL_1/0_Brenau_0_416_0_2_2_2_2

New Line.l(r:p3udm6855-p3udt1986lv) Units=km Length=0.0232708 bus1=p3udt1986lv.1.2 bus2=p3udm6855.1.2 switch=n enabled=y phases=2 Linecode=1P_UG_AL_4/0_Sweetbriar_0_416_0_2_2_2_2

New Line.l(r:p3udt2679lv-p3ulv57405) Units=km Length=0.0136819 bus1=p3udt2679lv.1.2 bus2=p3ulv57405.1.2 switch=n enabled=y phases=2 Linecode=1P_UG_AL_1/0_Brenau_0_416_0_2_2_2_2

New Line.l(r:p3udm9331-p3ulv2963) Units=km Length=0.0188407 bus1=p3udm9331.1.2 bus2=p3ulv2963.1.2 switch=n enabled=y phases=2 Linecode=1P_UG_AL_1/0_Brenau_0_416_0_2_2_2_2

New Line.l(r:p3udm9331-p3udt2679lv) Units=km Length=0.00933911 bus1=p3udt2679lv.1.2 bus2=p3udm9331.1.2 switch=n enabled=y phases=2 Linecode=1P_UG_AL_1/0_Brenau_0_416_0_2_2_2_2

New Line.l(r:p3udm9332-p3ulv56652) Units=km Length=0.0207918 bus1=p3udm9332.1.2 bus2=p3ulv56652.1.2 switch=n enabled=y phases=2 Linecode=1P_UG_AL_1/0_Brenau_0_416_0_2_2_2_2

New Line.l(r:p3udm9332-p3udt2679lv) Units=km Length=0.0238313 bus1=p3udt2679lv.1.2 bus2=p3udm9332.1.2 switch=n enabled=y phases=2 Linecode=1P_UG_AL_1/0_Brenau_0_416_0_2_2_2_2

New Line.l(r:p3udm9345-p3ulv2967) Units=km Length=0.0146554 bus1=p3udm9345.1.2 bus2=p3ulv2967.1.2 switch=n enabled=y phases=2 Linecode=1P_UG_AL_1/0_Brenau_0_416_0_2_2_2_2

New Line.l(r:p3udm9345-p3udt2683lv) Units=km Length=0.0222384 bus1=p3udt2683lv.1.2 bus2=p3udm9345.1.2 switch=n enabled=y phases=2 Linecode=1P_UG_AL_1/0_Brenau_0_416_0_2_2_2_2

New Line.l(r:p3udm9346-p3ulv25756) Units=km Length=0.0150543 bus1=p3udm9346.1.2 bus2=p3ulv25756.1.2 switch=n enabled=y phases=2 Linecode=1P_UG_AL_1/0_Brenau_0_416_0_2_2_2_2

New Line.l(r:p3udm9347-p3ulv62728) Units=km Length=0.016807500000000003 bus1=p3udm9347.1.2 bus2=p3ulv62728.1.2 switch=n enabled=y phases=2 Linecode=1P_UG_AL_1/0_Brenau_0_416_0_2_2_2_2

New Line.l(r:p3udm9346-p3udm9347) Units=km Length=0.00892718 bus1=p3udm9346.1.2 bus2=p3udm9347.1.2 switch=n enabled=y phases=2 Linecode=1P_UG_AL_1/0_Brenau_0_416_0_2_2_2_2

New Line.l(r:p3udm9346-p3udt2683lv) Units=km Length=0.00891898 bus1=p3udt2683lv.1.2 bus2=p3udm9346.1.2 switch=n enabled=y phases=2 Linecode=1P_UG_AL_4/0_Sweetbriar_0_416_0_2_2_2_2

New Line.l(r:p3udt2684lv-p3ulv2968) Units=km Length=0.0165273 bus1=p3udt2684lv.1.2 bus2=p3ulv2968.1.2 switch=n enabled=y phases=2 Linecode=1P_UG_AL_1/0_Brenau_0_416_0_2_2_2_2

New Line.l(r:p3udt2690lv-p3ulv2975) Units=km Length=0.0175367 bus1=p3udt2690lv.1.2 bus2=p3ulv2975.1.2 switch=n enabled=y phases=2 Linecode=1P_UG_AL_1/0_Brenau_0_416_0_2_2_2_2

New Line.l(r:p3udm9369-p3ulv54357) Units=km Length=0.0145187 bus1=p3udm9369.1.2 bus2=p3ulv54357.1.2 switch=n enabled=y phases=2 Linecode=1P_UG_AL_1/0_Brenau_0_416_0_2_2_2_2

New Line.l(r:p3udm9369-p3udt2690lv) Units=km Length=0.00963407 bus1=p3udt2690lv.1.2 bus2=p3udm9369.1.2 switch=n enabled=y phases=2 Linecode=1P_UG_AL_1/0_Brenau_0_416_0_2_2_2_2

New Line.l(r:p3udm9370-p3ulv55148) Units=km Length=0.0148956 bus1=p3udm9370.1.2 bus2=p3ulv55148.1.2 switch=n enabled=y phases=2 Linecode=1P_UG_AL_1/0_Brenau_0_416_0_2_2_2_2

New Line.l(r:p3udm9370-p3udt2690lv) Units=km Length=0.00964378 bus1=p3udt2690lv.1.2 bus2=p3udm9370.1.2 switch=n enabled=y phases=2 Linecode=1P_UG_AL_1/0_Brenau_0_416_0_2_2_2_2

New Line.l(r:p3udm9376-p3ulv2977) Units=km Length=0.0168414 bus1=p3udm9376.1.2 bus2=p3ulv2977.1.2 switch=n enabled=y phases=2 Linecode=1P_UG_AL_1/0_Brenau_0_416_0_2_2_2_2

New Line.l(r:p3udm9376-p3ulv61225) Units=km Length=0.013343400000000002 bus1=p3udm9376.1.2 bus2=p3ulv61225.1.2 switch=n enabled=y phases=2 Linecode=1P_UG_AL_1/0_Brenau_0_416_0_2_2_2_2

New Line.l(r:p3udm9376-p3udt2692lv) Units=km Length=0.00971149 bus1=p3udt2692lv.1.2 bus2=p3udm9376.1.2 switch=n enabled=y phases=2 Linecode=1P_UG_AL_4/0_Sweetbriar_0_416_0_2_2_2_2

New Line.l(r:p3udm9377-p3ulv14784) Units=km Length=0.0159624 bus1=p3udm9377.1.2 bus2=p3ulv14784.1.2 switch=n enabled=y phases=2 Linecode=1P_UG_AL_1/0_Brenau_0_416_0_2_2_2_2

New Line.l(r:p3udm9377-p3udt2692lv) Units=km Length=0.0291445 bus1=p3udt2692lv.1.2 bus2=p3udm9377.1.2 switch=n enabled=y phases=2 Linecode=1P_UG_AL_1/0_Brenau_0_416_0_2_2_2_2

New Line.l(r:p3udt2720lv-p3ulv3006) Units=km Length=0.0294978 bus1=p3udt2720lv.1.2 bus2=p3ulv3006.1.2 switch=n enabled=y phases=2 Linecode=1P_UG_AL_1/0_Brenau_0_416_0_2_2_2_2

New Line.l(r:p3udm11776-p3ulv3771) Units=km Length=0.0171138 bus1=p3udm11776.1.2 bus2=p3ulv3771.1.2 switch=n enabled=y phases=2 Linecode=1P_UG_AL_1/0_Brenau_0_416_0_2_2_2_2

New Line.l(r:p3udm11776-p3ulv48966) Units=km Length=0.0156973 bus1=p3udm11776.1.2 bus2=p3ulv48966.1.2 switch=n enabled=y phases=2 Linecode=1P_UG_AL_1/0_Brenau_0_416_0_2_2_2_2

New Line.l(r:p3udm11777-p3ulv35057) Units=km Length=0.01454 bus1=p3udm11777.1.2 bus2=p3ulv35057.1.2 switch=n enabled=y phases=2 Linecode=1P_UG_AL_1/0_Brenau_0_416_0_2_2_2_2

New Line.l(r:p3udm11776-p3udm11777) Units=km Length=0.00949771 bus1=p3udm11776.1.2 bus2=p3udm11777.1.2 switch=n enabled=y phases=2 Linecode=1P_UG_AL_1/0_Brenau_0_416_0_2_2_2_2

New Line.l(r:p3udm11776-p3udt3409lv) Units=km Length=0.00950016 bus1=p3udt3409lv.1.2 bus2=p3udm11776.1.2 switch=n enabled=y phases=2 Linecode=1P_UG_AL_4/0_Sweetbriar_0_416_0_2_2_2_2

New Line.l(r:p3udm11780-p3ulv73485) Units=km Length=0.0161906 bus1=p3udm11780.1.2 bus2=p3ulv73485.1.2 switch=n enabled=y phases=2 Linecode=1P_UG_AL_1/0_Brenau_0_416_0_2_2_2_2

New Line.l(r:p3udm11778-p3ulv42770) Units=km Length=0.0161816 bus1=p3udm11778.1.2 bus2=p3ulv42770.1.2 switch=n enabled=y phases=2 Linecode=1P_UG_AL_1/0_Brenau_0_416_0_2_2_2_2

New Line.l(r:p3udm11778-p3udm11780) Units=km Length=0.00876855 bus1=p3udm11780.1.2 bus2=p3udm11778.1.2 switch=n enabled=y phases=2 Linecode=1P_UG_AL_1/0_Brenau_0_416_0_2_2_2_2

New Line.l(r:p3udm11780-p3udt3409lv) Units=km Length=0.00948801 bus1=p3udt3409lv.1.2 bus2=p3udm11780.1.2 switch=n enabled=y phases=2 Linecode=1P_UG_AL_4/0_Sweetbriar_0_416_0_2_2_2_2

New Line.l(r:p3udt3410lv-p3ulv17888) Units=km Length=0.0157507 bus1=p3udt3410lv.1.2 bus2=p3ulv17888.1.2 switch=n enabled=y phases=2 Linecode=1P_UG_AL_1/0_Brenau_0_416_0_2_2_2_2

New Line.l(r:p3udt3410lv-p3ulv45948) Units=km Length=0.0150805 bus1=p3udt3410lv.1.2 bus2=p3ulv45948.1.2 switch=n enabled=y phases=2 Linecode=1P_UG_AL_1/0_Brenau_0_416_0_2_2_2_2

New Line.l(r:p3udm11781-p3ulv3772) Units=km Length=0.018456 bus1=p3udm11781.1.2 bus2=p3ulv3772.1.2 switch=n enabled=y phases=2 Linecode=1P_UG_AL_1/0_Brenau_0_416_0_2_2_2_2

New Line.l(r:p3udm11781-p3udt3410lv) Units=km Length=0.00988202 bus1=p3udt3410lv.1.2 bus2=p3udm11781.1.2 switch=n enabled=y phases=2 Linecode=1P_UG_AL_1/0_Brenau_0_416_0_2_2_2_2

New Line.l(r:p3udt3411lv-p3ulv3773) Units=km Length=0.0543783 bus1=p3udt3411lv.1.2 bus2=p3ulv3773.1.2 switch=n enabled=y phases=2 Linecode=1P_OH_AL_4/0_Zuzara_0_416_0_2_2_2_2

New Line.l(r:p3udt3416lv-p3ulv3778) Units=km Length=0.0223946 bus1=p3udt3416lv.1.2 bus2=p3ulv3778.1.2 switch=n enabled=y phases=2 Linecode=1P_UG_AL_1/0_Brenau_0_416_0_2_2_2_2

New Line.l(r:p3udt3417lv-p3ulv3779) Units=km Length=0.014782200000000002 bus1=p3udt3417lv.1.2 bus2=p3ulv3779.1.2 switch=n enabled=y phases=2 Linecode=1P_UG_AL_1/0_Brenau_0_416_0_2_2_2_2

New Line.l(r:p3udm11795-p3ulv3780) Units=km Length=0.019801 bus1=p3udm11795.1.2 bus2=p3ulv3780.1.2 switch=n enabled=y phases=2 Linecode=1P_UG_AL_1/0_Brenau_0_416_0_2_2_2_2

New Line.l(r:p3udm11796-p3ulv15571) Units=km Length=0.0262401 bus1=p3udm11796.1.2 bus2=p3ulv15571.1.2 switch=n enabled=y phases=2 Linecode=1P_UG_AL_1/0_Brenau_0_416_0_2_2_2_2

New Line.l(r:p3udm11795-p3udm11796) Units=km Length=0.0355826 bus1=p3udm11795.1.2 bus2=p3udm11796.1.2 switch=n enabled=y phases=2 Linecode=1P_UG_AL_1/0_Brenau_0_416_0_2_2_2_2

New Line.l(r:p3udm11795-p3udt3418lv) Units=km Length=0.00997462 bus1=p3udt3418lv.1.2 bus2=p3udm11795.1.2 switch=n enabled=y phases=2 Linecode=1P_UG_AL_4/0_Sweetbriar_0_416_0_2_2_2_2

New Line.l(r:p3udm11797-p3ulv45201) Units=km Length=0.0164112 bus1=p3udm11797.1.2 bus2=p3ulv45201.1.2 switch=n enabled=y phases=2 Linecode=1P_UG_AL_1/0_Brenau_0_416_0_2_2_2_2

New Line.l(r:p3udm11797-p3ulv47516) Units=km Length=0.0134752 bus1=p3udm11797.1.2 bus2=p3ulv47516.1.2 switch=n enabled=y phases=2 Linecode=1P_UG_AL_1/0_Brenau_0_416_0_2_2_2_2

New Line.l(r:p3udm11797-p3udt3418lv) Units=km Length=0.0399051 bus1=p3udt3418lv.1.2 bus2=p3udm11797.1.2 switch=n enabled=y phases=2 Linecode=1P_UG_AL_4/0_Sweetbriar_0_416_0_2_2_2_2

New Line.l(r:p3udm11799-p3ulv3781) Units=km Length=0.0237649 bus1=p3udm11799.1.2 bus2=p3ulv3781.1.2 switch=n enabled=y phases=2 Linecode=1P_UG_AL_1/0_Brenau_0_416_0_2_2_2_2
