New Line.l(r:p1rdt49lv-p1rlv50) Units=km Length=0.022360000000000005 bus1=p1rdt49lv.1.2 bus2=p1rlv50.1.2 switch=n enabled=y phases=2 Linecode=1P_OH_AL_2/0_Rucina_0_416_0_2_2_2_2_2_2_2_2_2_2_2_2_2_2_2_2_2_2_2_2_2_2_2_2_2_2_2_2_2

New Line.l(r:p1rdt50lv-p1rlv11571) Units=km Length=0.0300648 bus1=p1rdt50lv.1.2 bus2=p1rlv11571.1.2 switch=n enabled=y phases=2 Linecode=1P_OH_AL_4/0_Zuzara_0_416_0_2_2_2_2_2_2_2_2_2_2_2_2_2_2_2_2_2_2_2_2_2_2_2_2_2_2_2_2_2

New Line.l(r:p1rdm117-p1rlv51) Units=km Length=0.0797245 bus1=p1rdm117.1.2 bus2=p1rlv51.1.2 switch=n enabled=y phases=2 Linecode=1P_OH_AL_4/0_Zuzara_0_416_0_2_2_2_2_2_2_2_2_2_2_2_2_2_2_2_2_2_2_2_2_2_2_2_2_2_2_2_2_2

New Line.l(r:p1rdm117-p1rdt50lv) Units=km Length=0.0198911 bus1=p1rdt50lv.1.2 bus2=p1rdm117.1.2 switch=n enabled=y phases=2 Linecode=1P_OH_AL_2/0_Rucina_0_416_0_2_2_2_2_2_2_2_2_2_2_2_2_2_2_2_2_2_2_2_2_2_2_2_2_2_2_2_2_2

New Line.l(r:p1rdt53lv-p1rlv5170) Units=km Length=0.0590382 bus1=p1rdt53lv.1.2 bus2=p1rlv5170.1.2 switch=n enabled=y phases=2 Linecode=1P_OH_AL_4/0_Zuzara_0_416_0_2_2_2_2_2_2_2_2_2_2_2_2_2_2_2_2_2_2_2_2_2_2_2_2_2_2_2_2_2

New Line.l(r:p1rdt53lv-p1rlv5438) Units=km Length=0.11760600000000002 bus1=p1rdt53lv.1.2 bus2=p1rlv5438.1.2 switch=n enabled=y phases=2 Linecode=1P_OH_AL_4/0_Zuzara_0_416_0_2_2_2_2_2_2_2_2_2_2_2_2_2_2_2_2_2_2_2_2_2_2_2_2_2_2_2_2_2

New Line.l(r:p1rdm123-p1rlv54) Units=km Length=0.0404885 bus1=p1rdm123.1.2 bus2=p1rlv54.1.2 switch=n enabled=y phases=2 Linecode=1P_OH_AL_4/0_Zuzara_0_416_0_2_2_2_2_2_2_2_2_2_2_2_2_2_2_2_2_2_2_2_2_2_2_2_2_2_2_2_2_2

New Line.l(r:p1rdm123-p1rdt53lv) Units=km Length=0.0194925 bus1=p1rdt53lv.1.2 bus2=p1rdm123.1.2 switch=n enabled=y phases=2 Linecode=1P_OH_AL_2/0_Rucina_0_416_0_2_2_2_2_2_2_2_2_2_2_2_2_2_2_2_2_2_2_2_2_2_2_2_2_2_2_2_2_2

New Line.l(r:p1rdt54lv-p1rlv55) Units=km Length=0.001 bus1=p1rdt54lv.1.2 bus2=p1rlv55.1.2 switch=n enabled=y phases=2 Linecode=1P_OH_AL_4_Periwinkle_0_416_0_2_2_2_2_2_2_2_2_2_2_2_2_2_2_2_2_2_2_2_2_2_2_2_2_2_2_2_2_2

New Line.l(r:p1rdt180lv-p1rlv186) Units=km Length=0.0184185 bus1=p1rdt180lv.1.2 bus2=p1rlv186.1.2 switch=n enabled=y phases=2 Linecode=1P_OH_AL_2/0_Rucina_0_416_0_2_2_2_2_2_2_2_2_2_2_2_2_2_2_2_2_2_2_2_2_2_2_2_2_2_2_2_2_2

New Line.l(r:p1rdt180lv-p1rlv3259) Units=km Length=0.0184185 bus1=p1rdt180lv.1.2 bus2=p1rlv3259.1.2 switch=n enabled=y phases=2 Linecode=1P_OH_AL_2/0_Rucina_0_416_0_2_2_2_2_2_2_2_2_2_2_2_2_2_2_2_2_2_2_2_2_2_2_2_2_2_2_2_2_2

New Line.l(r:p1rdt311lv-p1rlv320) Units=km Length=0.0196649 bus1=p1rdt311lv.1.2 bus2=p1rlv320.1.2 switch=n enabled=y phases=2 Linecode=1P_OH_AL_2/0_Rucina_0_416_0_2_2_2_2_2_2_2_2_2_2_2_2_2_2_2_2_2_2_2_2_2_2_2_2_2_2_2_2_2

New Line.l(r:p1rdt311lv-p1rlv1402) Units=km Length=0.0422058 bus1=p1rdt311lv.1.2 bus2=p1rlv1402.1.2 switch=n enabled=y phases=2 Linecode=1P_OH_AL_4/0_Zuzara_0_416_0_2_2_2_2_2_2_2_2_2_2_2_2_2_2_2_2_2_2_2_2_2_2_2_2_2_2_2_2_2

New Line.l(r:p1rdt311lv-p1rlv8856) Units=km Length=0.110401 bus1=p1rdt311lv.1.2 bus2=p1rlv8856.1.2 switch=n enabled=y phases=2 Linecode=1P_OH_AL_4/0_Zuzara_0_416_0_2_2_2_2_2_2_2_2_2_2_2_2_2_2_2_2_2_2_2_2_2_2_2_2_2_2_2_2_2

New Line.l(r:p1rdt311lv-p1rlv10592) Units=km Length=0.0175348 bus1=p1rdt311lv.1.2 bus2=p1rlv10592.1.2 switch=n enabled=y phases=2 Linecode=1P_OH_AL_2/0_Rucina_0_416_0_2_2_2_2_2_2_2_2_2_2_2_2_2_2_2_2_2_2_2_2_2_2_2_2_2_2_2_2_2

New Line.l(r:p1rdt311lv-p1rlv12259) Units=km Length=0.0448139 bus1=p1rdt311lv.1.2 bus2=p1rlv12259.1.2 switch=n enabled=y phases=2 Linecode=1P_OH_AL_4/0_Zuzara_0_416_0_2_2_2_2_2_2_2_2_2_2_2_2_2_2_2_2_2_2_2_2_2_2_2_2_2_2_2_2_2

New Line.l(r:p1rdt311lv-p1rlv13823) Units=km Length=0.0418128 bus1=p1rdt311lv.1.2 bus2=p1rlv13823.1.2 switch=n enabled=y phases=2 Linecode=1P_OH_AL_4/0_Zuzara_0_416_0_2_2_2_2_2_2_2_2_2_2_2_2_2_2_2_2_2_2_2_2_2_2_2_2_2_2_2_2_2

New Line.l(r:p1rdt318lv-p1rlv327) Units=km Length=0.001 bus1=p1rdt318lv.1.2 bus2=p1rlv327.1.2 switch=n enabled=y phases=2 Linecode=1P_OH_AL_4_Periwinkle_0_416_0_2_2_2_2_2_2_2_2_2_2_2_2_2_2_2_2_2_2_2_2_2_2_2_2_2_2_2_2_2

New Line.l(r:p1rdt319lv-p1rlv328) Units=km Length=0.090096 bus1=p1rdt319lv.1.2 bus2=p1rlv328.1.2 switch=n enabled=y phases=2 Linecode=1P_OH_AL_4/0_Zuzara_0_416_0_2_2_2_2_2_2_2_2_2_2_2_2_2_2_2_2_2_2_2_2_2_2_2_2_2_2_2_2_2

New Line.l(r:p1rdm756-p1rlv3533) Units=km Length=0.094594 bus1=p1rdm756.1.2 bus2=p1rlv3533.1.2 switch=n enabled=y phases=2 Linecode=1P_OH_AL_4/0_Zuzara_0_416_0_2_2_2_2_2_2_2_2_2_2_2_2_2_2_2_2_2_2_2_2_2_2_2_2_2_2_2_2_2

New Line.l(r:p1rdm756-p1rlv9000) Units=km Length=0.0811217 bus1=p1rdm756.1.2 bus2=p1rlv9000.1.2 switch=n enabled=y phases=2 Linecode=1P_OH_AL_4/0_Zuzara_0_416_0_2_2_2_2_2_2_2_2_2_2_2_2_2_2_2_2_2_2_2_2_2_2_2_2_2_2_2_2_2

New Line.l(r:p1rdm759-p1rlv10463) Units=km Length=0.0819395 bus1=p1rdm759.1.2 bus2=p1rlv10463.1.2 switch=n enabled=y phases=2 Linecode=1P_OH_AL_4/0_Zuzara_0_416_0_2_2_2_2_2_2_2_2_2_2_2_2_2_2_2_2_2_2_2_2_2_2_2_2_2_2_2_2_2

New Line.l(r:p1rdm756-p1rdm759) Units=km Length=0.0193928 bus1=p1rdm756.1.2 bus2=p1rdm759.1.2 switch=n enabled=y phases=2 Linecode=1P_OH_AL_2/0_Rucina_0_416_0_2_2_2_2_2_2_2_2_2_2_2_2_2_2_2_2_2_2_2_2_2_2_2_2_2_2_2_2_2

New Line.l(r:p1rdm756-p1rdt319lv) Units=km Length=0.0194065 bus1=p1rdt319lv.1.2 bus2=p1rdm756.1.2 switch=n enabled=y phases=2 Linecode=1P_OH_AL_2/0_Rucina_0_416_0_2_2_2_2_2_2_2_2_2_2_2_2_2_2_2_2_2_2_2_2_2_2_2_2_2_2_2_2_2

New Line.l(r:p1rdm757-p1rlv4342) Units=km Length=0.0886239 bus1=p1rdm757.1.2 bus2=p1rlv4342.1.2 switch=n enabled=y phases=2 Linecode=1P_OH_AL_4/0_Zuzara_0_416_0_2_2_2_2_2_2_2_2_2_2_2_2_2_2_2_2_2_2_2_2_2_2_2_2_2_2_2_2_2

New Line.l(r:p1rdm757-p1rdt319lv) Units=km Length=0.0387993 bus1=p1rdt319lv.1.2 bus2=p1rdm757.1.2 switch=n enabled=y phases=2 Linecode=1P_OH_AL_4/0_Zuzara_0_416_0_2_2_2_2_2_2_2_2_2_2_2_2_2_2_2_2_2_2_2_2_2_2_2_2_2_2_2_2_2

New Line.l(r:p1rdt320lv-p1rlv329) Units=km Length=0.0130034 bus1=p1rdt320lv.1.2 bus2=p1rlv329.1.2 switch=n enabled=y phases=2 Linecode=1P_OH_AL_2/0_Rucina_0_416_0_2_2_2_2_2_2_2_2_2_2_2_2_2_2_2_2_2_2_2_2_2_2_2_2_2_2_2_2_2

New Line.l(r:p1rdt441lv-p1rlv451) Units=km Length=0.0682649 bus1=p1rdt441lv.1.2 bus2=p1rlv451.1.2 switch=n enabled=y phases=2 Linecode=1P_OH_AL_4/0_Zuzara_0_416_0_2_2_2_2_2_2_2_2_2_2_2_2_2_2_2_2_2_2_2_2_2_2_2_2_2_2_2_2_2

New Line.l(r:p1rdt441lv-p1rlv9119) Units=km Length=0.019495 bus1=p1rdt441lv.1.2 bus2=p1rlv9119.1.2 switch=n enabled=y phases=2 Linecode=1P_OH_AL_2/0_Rucina_0_416_0_2_2_2_2_2_2_2_2_2_2_2_2_2_2_2_2_2_2_2_2_2_2_2_2_2_2_2_2_2

New Line.l(r:p1rdt441lv-p1rlv12417) Units=km Length=0.0487699 bus1=p1rdt441lv.1.2 bus2=p1rlv12417.1.2 switch=n enabled=y phases=2 Linecode=1P_OH_AL_4/0_Zuzara_0_416_0_2_2_2_2_2_2_2_2_2_2_2_2_2_2_2_2_2_2_2_2_2_2_2_2_2_2_2_2_2

New Line.l(r:p1rdt442lv-p1rlv452) Units=km Length=0.0350572 bus1=p1rdt442lv.1.2 bus2=p1rlv452.1.2 switch=n enabled=y phases=2 Linecode=1P_OH_AL_4/0_Zuzara_0_416_0_2_2_2_2_2_2_2_2_2_2_2_2_2_2_2_2_2_2_2_2_2_2_2_2_2_2_2_2_2

New Line.l(r:p1rdt442lv-p1rlv1541) Units=km Length=0.0217899 bus1=p1rdt442lv.1.2 bus2=p1rlv1541.1.2 switch=n enabled=y phases=2 Linecode=1P_OH_AL_2/0_Rucina_0_416_0_2_2_2_2_2_2_2_2_2_2_2_2_2_2_2_2_2_2_2_2_2_2_2_2_2_2_2_2_2

New Line.l(r:p1rdt442lv-p1rlv3680) Units=km Length=0.022044600000000004 bus1=p1rdt442lv.1.2 bus2=p1rlv3680.1.2 switch=n enabled=y phases=2 Linecode=1P_OH_AL_2/0_Rucina_0_416_0_2_2_2_2_2_2_2_2_2_2_2_2_2_2_2_2_2_2_2_2_2_2_2_2_2_2_2_2_2

New Line.l(r:p1rdt442lv-p1rlv7683) Units=km Length=0.0196038 bus1=p1rdt442lv.1.2 bus2=p1rlv7683.1.2 switch=n enabled=y phases=2 Linecode=1P_OH_AL_2/0_Rucina_0_416_0_2_2_2_2_2_2_2_2_2_2_2_2_2_2_2_2_2_2_2_2_2_2_2_2_2_2_2_2_2

New Line.l(r:p1rdt443lv-p1rlv453) Units=km Length=0.0939381 bus1=p1rdt443lv.1.2 bus2=p1rlv453.1.2 switch=n enabled=y phases=2 Linecode=1P_OH_AL_4/0_Zuzara_0_416_0_2_2_2_2_2_2_2_2_2_2_2_2_2_2_2_2_2_2_2_2_2_2_2_2_2_2_2_2_2

New Line.l(r:p1rdt565lv-p1rlv579) Units=km Length=0.022500200000000005 bus1=p1rdt565lv.1.2 bus2=p1rlv579.1.2 switch=n enabled=y phases=2 Linecode=1P_OH_AL_2/0_Rucina_0_416_0_2_2_2_2_2_2_2_2_2_2_2_2_2_2_2_2_2_2_2_2_2_2_2_2_2_2_2_2_2

New Line.l(r:p1rdt565lv-p1rlv5439) Units=km Length=0.022500200000000005 bus1=p1rdt565lv.1.2 bus2=p1rlv5439.1.2 switch=n enabled=y phases=2 Linecode=1P_OH_AL_2/0_Rucina_0_416_0_2_2_2_2_2_2_2_2_2_2_2_2_2_2_2_2_2_2_2_2_2_2_2_2_2_2_2_2_2

New Line.l(r:p1rdt687lv-p1rlv717) Units=km Length=0.0317694 bus1=p1rdt687lv.1.2 bus2=p1rlv717.1.2 switch=n enabled=y phases=2 Linecode=1P_OH_AL_4/0_Zuzara_0_416_0_2_2_2_2_2_2_2_2_2_2_2_2_2_2_2_2_2_2_2_2_2_2_2_2_2_2_2_2_2

New Line.l(r:p1rdt694lv-p1rlv724) Units=km Length=0.001 bus1=p1rdt694lv.1.2 bus2=p1rlv724.1.2 switch=n enabled=y phases=2 Linecode=1P_UG_AL_1/0_Brenau_0_416_0_2_2_2_2_2_2_2_2_2_2_2_2_2_2_2_2_2_2_2_2_2_2_2_2_2_2_2_2_2

New Line.l(r:p1rdt695lv-p1rlv725) Units=km Length=0.055360900000000005 bus1=p1rdt695lv.1.2 bus2=p1rlv725.1.2 switch=n enabled=y phases=2 Linecode=1P_OH_AL_4/0_Zuzara_0_416_0_2_2_2_2_2_2_2_2_2_2_2_2_2_2_2_2_2_2_2_2_2_2_2_2_2_2_2_2_2

New Line.l(r:p1rdt695lv-p1rlv1542) Units=km Length=0.108568 bus1=p1rdt695lv.1.2 bus2=p1rlv1542.1.2 switch=n enabled=y phases=2 Linecode=1P_OH_AL_4/0_Zuzara_0_416_0_2_2_2_2_2_2_2_2_2_2_2_2_2_2_2_2_2_2_2_2_2_2_2_2_2_2_2_2_2

New Line.l(r:p1rdt696lv-p1rlv726) Units=km Length=0.0392047 bus1=p1rdt696lv.1.2 bus2=p1rlv726.1.2 switch=n enabled=y phases=2 Linecode=1P_OH_AL_4/0_Zuzara_0_416_0_2_2_2_2_2_2_2_2_2_2_2_2_2_2_2_2_2_2_2_2_2_2_2_2_2_2_2_2_2

New Line.l(r:p1rdt696lv-p1rlv1010) Units=km Length=0.0601362 bus1=p1rdt696lv.1.2 bus2=p1rlv1010.1.2 switch=n enabled=y phases=2 Linecode=1P_OH_AL_4/0_Zuzara_0_416_0_2_2_2_2_2_2_2_2_2_2_2_2_2_2_2_2_2_2_2_2_2_2_2_2_2_2_2_2_2

New Line.l(r:p1rdt696lv-p1rlv12133) Units=km Length=0.102793 bus1=p1rdt696lv.1.2 bus2=p1rlv12133.1.2 switch=n enabled=y phases=2 Linecode=1P_OH_AL_4/0_Zuzara_0_416_0_2_2_2_2_2_2_2_2_2_2_2_2_2_2_2_2_2_2_2_2_2_2_2_2_2_2_2_2_2

New Line.l(r:p1rdt700lv-p1rlv3820) Units=km Length=0.0879636 bus1=p1rdt700lv.1.2 bus2=p1rlv3820.1.2 switch=n enabled=y phases=2 Linecode=1P_OH_AL_4/0_Zuzara_0_416_0_2_2_2_2_2_2_2_2_2_2_2_2_2_2_2_2_2_2_2_2_2_2_2_2_2_2_2_2_2

New Line.l(r:p1rdt700lv-p1rlv9385) Units=km Length=0.0609368 bus1=p1rdt700lv.1.2 bus2=p1rlv9385.1.2 switch=n enabled=y phases=2 Linecode=1P_OH_AL_4/0_Zuzara_0_416_0_2_2_2_2_2_2_2_2_2_2_2_2_2_2_2_2_2_2_2_2_2_2_2_2_2_2_2_2_2

New Line.l(r:p1rdm1612-p1rlv730) Units=km Length=0.05511060000000001 bus1=p1rdm1612.1.2 bus2=p1rlv730.1.2 switch=n enabled=y phases=2 Linecode=1P_OH_AL_4/0_Zuzara_0_416_0_2_2_2_2_2_2_2_2_2_2_2_2_2_2_2_2_2_2_2_2_2_2_2_2_2_2_2_2_2

New Line.l(r:p1rdm1612-p1rdt700lv) Units=km Length=0.0194925 bus1=p1rdt700lv.1.2 bus2=p1rdm1612.1.2 switch=n enabled=y phases=2 Linecode=1P_OH_AL_2/0_Rucina_0_416_0_2_2_2_2_2_2_2_2_2_2_2_2_2_2_2_2_2_2_2_2_2_2_2_2_2_2_2_2_2

New Line.l(r:p1rdt701lv-p1rlv731) Units=km Length=0.0206905 bus1=p1rdt701lv.1.2 bus2=p1rlv731.1.2 switch=n enabled=y phases=2 Linecode=1P_OH_AL_2/0_Rucina_0_416_0_2_2_2_2_2_2_2_2_2_2_2_2_2_2_2_2_2_2_2_2_2_2_2_2_2_2_2_2_2

New Line.l(r:p1rdt701lv-p1rlv4066) Units=km Length=0.0206905 bus1=p1rdt701lv.1.2 bus2=p1rlv4066.1.2 switch=n enabled=y phases=2 Linecode=1P_OH_AL_2/0_Rucina_0_416_0_2_2_2_2_2_2_2_2_2_2_2_2_2_2_2_2_2_2_2_2_2_2_2_2_2_2_2_2_2

New Line.l(r:p1rdt702lv-p1rlv732) Units=km Length=0.001 bus1=p1rdt702lv.1.2 bus2=p1rlv732.1.2 switch=n enabled=y phases=2 Linecode=1P_OH_AL_4_Periwinkle_0_416_0_2_2_2_2_2_2_2_2_2_2_2_2_2_2_2_2_2_2_2_2_2_2_2_2_2_2_2_2_2

New Line.l(r:p1rdt830lv-p1rlv867) Units=km Length=0.030497 bus1=p1rdt830lv.1.2 bus2=p1rlv867.1.2 switch=n enabled=y phases=2 Linecode=1P_OH_AL_4/0_Zuzara_0_416_0_2_2_2_2_2_2_2_2_2_2_2_2_2_2_2_2_2_2_2_2_2_2_2_2_2_2_2_2_2

New Line.l(r:p1rdt830lv-p1rlv2890) Units=km Length=0.0407141 bus1=p1rdt830lv.1.2 bus2=p1rlv2890.1.2 switch=n enabled=y phases=2 Linecode=1P_OH_AL_4/0_Zuzara_0_416_0_2_2_2_2_2_2_2_2_2_2_2_2_2_2_2_2_2_2_2_2_2_2_2_2_2_2_2_2_2

New Line.l(r:p1rdt830lv-p1rlv5836) Units=km Length=0.0304776 bus1=p1rdt830lv.1.2 bus2=p1rlv5836.1.2 switch=n enabled=y phases=2 Linecode=1P_OH_AL_4/0_Zuzara_0_416_0_2_2_2_2_2_2_2_2_2_2_2_2_2_2_2_2_2_2_2_2_2_2_2_2_2_2_2_2_2

New Line.l(r:p1rdt830lv-p1rlv11171) Units=km Length=0.0217365 bus1=p1rdt830lv.1.2 bus2=p1rlv11171.1.2 switch=n enabled=y phases=2 Linecode=1P_OH_AL_2/0_Rucina_0_416_0_2_2_2_2_2_2_2_2_2_2_2_2_2_2_2_2_2_2_2_2_2_2_2_2_2_2_2_2_2

New Line.l(r:p1rdt831lv-p1rlv868) Units=km Length=0.0645914 bus1=p1rdt831lv.1.2 bus2=p1rlv868.1.2 switch=n enabled=y phases=2 Linecode=1P_OH_AL_4/0_Zuzara_0_416_0_2_2_2_2_2_2_2_2_2_2_2_2_2_2_2_2_2_2_2_2_2_2_2_2_2_2_2_2_2

New Line.l(r:p1rdt832lv-p1rlv869) Units=km Length=0.001 bus1=p1rdt832lv.1.2 bus2=p1rlv869.1.2 switch=n enabled=y phases=2 Linecode=1P_OH_AL_4_Periwinkle_0_416_0_2_2_2_2_2_2_2_2_2_2_2_2_2_2_2_2_2_2_2_2_2_2_2_2_2_2_2_2_2

New Line.l(r:p1rdt833lv-p1rlv870) Units=km Length=0.0993696 bus1=p1rdt833lv.1.2 bus2=p1rlv870.1.2 switch=n enabled=y phases=2 Linecode=1P_OH_AL_4/0_Zuzara_0_416_0_2_2_2_2_2_2_2_2_2_2_2_2_2_2_2_2_2_2_2_2_2_2_2_2_2_2_2_2_2

New Line.l(r:p1rdt833lv-p1rlv11174) Units=km Length=0.0309799 bus1=p1rdt833lv.1.2 bus2=p1rlv11174.1.2 switch=n enabled=y phases=2 Linecode=1P_OH_AL_4/0_Zuzara_0_416_0_2_2_2_2_2_2_2_2_2_2_2_2_2_2_2_2_2_2_2_2_2_2_2_2_2_2_2_2_2

New Line.l(r:p1rdt834lv-p1rlv871) Units=km Length=0.001 bus1=p1rdt834lv.1.2 bus2=p1rlv871.1.2 switch=n enabled=y phases=2 Linecode=1P_OH_AL_4_Periwinkle_0_416_0_2_2_2_2_2_2_2_2_2_2_2_2_2_2_2_2_2_2_2_2_2_2_2_2_2_2_2_2_2

New Line.l(r:p1rdt962lv-p1rlv1012) Units=km Length=0.025201600000000005 bus1=p1rdt962lv.1.2 bus2=p1rlv1012.1.2 switch=n enabled=y phases=2 Linecode=1P_OH_AL_2/0_Rucina_0_416_0_2_2_2_2_2_2_2_2_2_2_2_2_2_2_2_2_2_2_2_2_2_2_2_2_2_2_2_2_2

New Line.l(r:p1rdt962lv-p1rlv8316) Units=km Length=0.0379275 bus1=p1rdt962lv.1.2 bus2=p1rlv8316.1.2 switch=n enabled=y phases=2 Linecode=1P_OH_AL_4/0_Zuzara_0_416_0_2_2_2_2_2_2_2_2_2_2_2_2_2_2_2_2_2_2_2_2_2_2_2_2_2_2_2_2_2

New Line.l(r:p1rdt962lv-p1rlv11854) Units=km Length=0.0581448 bus1=p1rdt962lv.1.2 bus2=p1rlv11854.1.2 switch=n enabled=y phases=2 Linecode=1P_OH_AL_4/0_Zuzara_0_416_0_2_2_2_2_2_2_2_2_2_2_2_2_2_2_2_2_2_2_2_2_2_2_2_2_2_2_2_2_2

New Line.l(r:p1rdt963lv-p1rlv5048) Units=km Length=0.0756964 bus1=p1rdt963lv.1.2 bus2=p1rlv5048.1.2 switch=n enabled=y phases=2 Linecode=1P_OH_AL_4/0_Zuzara_0_416_0_2_2_2_2_2_2_2_2_2_2_2_2_2_2_2_2_2_2_2_2_2_2_2_2_2_2_2_2_2

New Line.l(r:p1rdm2182-p1rlv1013) Units=km Length=0.0933827 bus1=p1rdm2182.1.2 bus2=p1rlv1013.1.2 switch=n enabled=y phases=2 Linecode=1P_OH_AL_4/0_Zuzara_0_416_0_2_2_2_2_2_2_2_2_2_2_2_2_2_2_2_2_2_2_2_2_2_2_2_2_2_2_2_2_2

New Line.l(r:p1rdm2182-p1rlv7555) Units=km Length=0.0955645 bus1=p1rdm2182.1.2 bus2=p1rlv7555.1.2 switch=n enabled=y phases=2 Linecode=1P_OH_AL_4/0_Zuzara_0_416_0_2_2_2_2_2_2_2_2_2_2_2_2_2_2_2_2_2_2_2_2_2_2_2_2_2_2_2_2_2

New Line.l(r:p1rdm2182-p1rdt963lv) Units=km Length=0.0188804 bus1=p1rdt963lv.1.2 bus2=p1rdm2182.1.2 switch=n enabled=y phases=2 Linecode=1P_OH_AL_2/0_Rucina_0_416_0_2_2_2_2_2_2_2_2_2_2_2_2_2_2_2_2_2_2_2_2_2_2_2_2_2_2_2_2_2

New Line.l(r:p1rdm2183-p1rlv2747) Units=km Length=0.0522531 bus1=p1rdm2183.1.2 bus2=p1rlv2747.1.2 switch=n enabled=y phases=2 Linecode=1P_OH_AL_4/0_Zuzara_0_416_0_2_2_2_2_2_2_2_2_2_2_2_2_2_2_2_2_2_2_2_2_2_2_2_2_2_2_2_2_2

New Line.l(r:p1rdm2183-p1rdt963lv) Units=km Length=0.0170562 bus1=p1rdt963lv.1.2 bus2=p1rdm2183.1.2 switch=n enabled=y phases=2 Linecode=1P_OH_AL_2/0_Rucina_0_416_0_2_2_2_2_2_2_2_2_2_2_2_2_2_2_2_2_2_2_2_2_2_2_2_2_2_2_2_2_2

New Line.l(r:p1rdt1068lv-p1rlv1130) Units=km Length=0.0240058 bus1=p1rdt1068lv.1.2 bus2=p1rlv1130.1.2 switch=n enabled=y phases=2 Linecode=1P_OH_AL_2/0_Rucina_0_416_0_2_2_2_2_2_2_2_2_2_2_2_2_2_2_2_2_2_2_2_2_2_2_2_2_2_2_2_2_2

New Line.l(r:p1rdt1068lv-p1rlv3815) Units=km Length=0.0240997 bus1=p1rdt1068lv.1.2 bus2=p1rlv3815.1.2 switch=n enabled=y phases=2 Linecode=1P_OH_AL_2/0_Rucina_0_416_0_2_2_2_2_2_2_2_2_2_2_2_2_2_2_2_2_2_2_2_2_2_2_2_2_2_2_2_2_2

New Line.l(r:p1rdt1069lv-p1rlv1131) Units=km Length=0.0213107 bus1=p1rdt1069lv.1.2 bus2=p1rlv1131.1.2 switch=n enabled=y phases=2 Linecode=1P_OH_AL_2/0_Rucina_0_416_0_2_2_2_2_2_2_2_2_2_2_2_2_2_2_2_2_2_2_2_2_2_2_2_2_2_2_2_2_2

New Line.l(r:p1rdt1069lv-p1rlv1410) Units=km Length=0.0213107 bus1=p1rdt1069lv.1.2 bus2=p1rlv1410.1.2 switch=n enabled=y phases=2 Linecode=1P_OH_AL_2/0_Rucina_0_416_0_2_2_2_2_2_2_2_2_2_2_2_2_2_2_2_2_2_2_2_2_2_2_2_2_2_2_2_2_2

New Line.l(r:p1rdt1070lv-p1rlv1132) Units=km Length=0.0412263 bus1=p1rdt1070lv.1.2 bus2=p1rlv1132.1.2 switch=n enabled=y phases=2 Linecode=1P_OH_AL_4/0_Zuzara_0_416_0_2_2_2_2_2_2_2_2_2_2_2_2_2_2_2_2_2_2_2_2_2_2_2_2_2_2_2_2_2

New Line.l(r:p1rdt1083lv-p1rlv1145) Units=km Length=0.0177713 bus1=p1rdt1083lv.1.2 bus2=p1rlv1145.1.2 switch=n enabled=y phases=2 Linecode=1P_OH_AL_2/0_Rucina_0_416_0_2_2_2_2_2_2_2_2_2_2_2_2_2_2_2_2_2_2_2_2_2_2_2_2_2_2_2_2_2

New Line.l(r:p1rdt1083lv-p1rlv4786) Units=km Length=0.0177713 bus1=p1rdt1083lv.1.2 bus2=p1rlv4786.1.2 switch=n enabled=y phases=2 Linecode=1P_OH_AL_2/0_Rucina_0_416_0_2_2_2_2_2_2_2_2_2_2_2_2_2_2_2_2_2_2_2_2_2_2_2_2_2_2_2_2_2

New Line.l(r:p1rdt1175lv-p1rlv1246) Units=km Length=0.0288968 bus1=p1rdt1175lv.1.2 bus2=p1rlv1246.1.2 switch=n enabled=y phases=2 Linecode=1P_OH_AL_4/0_Zuzara_0_416_0_2_2_2_2_2_2_2_2_2_2_2_2_2_2_2_2_2_2_2_2_2_2_2_2_2_2_2_2_2

New Line.l(r:p1rdt1175lv-p1rlv3127) Units=km Length=0.0353328 bus1=p1rdt1175lv.1.2 bus2=p1rlv3127.1.2 switch=n enabled=y phases=2 Linecode=1P_OH_AL_4/0_Zuzara_0_416_0_2_2_2_2_2_2_2_2_2_2_2_2_2_2_2_2_2_2_2_2_2_2_2_2_2_2_2_2_2

New Line.l(r:p1rdt1175lv-p1rlv3933) Units=km Length=0.0442892 bus1=p1rdt1175lv.1.2 bus2=p1rlv3933.1.2 switch=n enabled=y phases=2 Linecode=1P_OH_AL_4/0_Zuzara_0_416_0_2_2_2_2_2_2_2_2_2_2_2_2_2_2_2_2_2_2_2_2_2_2_2_2_2_2_2_2_2

New Line.l(r:p1rdt1175lv-p1rlv4629) Units=km Length=0.0499794 bus1=p1rdt1175lv.1.2 bus2=p1rlv4629.1.2 switch=n enabled=y phases=2 Linecode=1P_OH_AL_4/0_Zuzara_0_416_0_2_2_2_2_2_2_2_2_2_2_2_2_2_2_2_2_2_2_2_2_2_2_2_2_2_2_2_2_2

New Line.l(r:p1rdt1317lv-p1rlv1411) Units=km Length=0.001 bus1=p1rdt1317lv.1.2 bus2=p1rlv1411.1.2 switch=n enabled=y phases=2 Linecode=1P_OH_AL_4_Periwinkle_0_416_0_2_2_2_2_2_2_2_2_2_2_2_2_2_2_2_2_2_2_2_2_2_2_2_2_2_2_2_2_2

New Line.l(r:p1rdt1318lv-p1rlv1412) Units=km Length=0.0177872 bus1=p1rdt1318lv.1.2 bus2=p1rlv1412.1.2 switch=n enabled=y phases=2 Linecode=1P_OH_AL_2/0_Rucina_0_416_0_2_2_2_2_2_2_2_2_2_2_2_2_2_2_2_2_2_2_2_2_2_2_2_2_2_2_2_2_2

New Line.l(r:p1rdt1318lv-p1rlv6852) Units=km Length=0.0177872 bus1=p1rdt1318lv.1.2 bus2=p1rlv6852.1.2 switch=n enabled=y phases=2 Linecode=1P_OH_AL_2/0_Rucina_0_416_0_2_2_2_2_2_2_2_2_2_2_2_2_2_2_2_2_2_2_2_2_2_2_2_2_2_2_2_2_2

New Line.l(r:p1rdm3158-p1rlv1543) Units=km Length=0.0362451 bus1=p1rdm3158.1.2 bus2=p1rlv1543.1.2 switch=n enabled=y phases=2 Linecode=1P_OH_AL_4/0_Zuzara_0_416_0_2_2_2_2_2_2_2_2_2_2_2_2_2_2_2_2_2_2_2_2_2_2_2_2_2_2_2_2_2

New Line.l(r:p1rdm3158-p1rdt1436lv) Units=km Length=0.0194925 bus1=p1rdt1436lv.1.2 bus2=p1rdm3158.1.2 switch=n enabled=y phases=2 Linecode=1P_OH_AL_2/0_Rucina_0_416_0_2_2_2_2_2_2_2_2_2_2_2_2_2_2_2_2_2_2_2_2_2_2_2_2_2_2_2_2_2

New Line.l(r:p1rdm3159-p1rlv3385) Units=km Length=0.05899600000000001 bus1=p1rdm3159.1.2 bus2=p1rlv3385.1.2 switch=n enabled=y phases=2 Linecode=1P_OH_AL_4/0_Zuzara_0_416_0_2_2_2_2_2_2_2_2_2_2_2_2_2_2_2_2_2_2_2_2_2_2_2_2_2_2_2_2_2

New Line.l(r:p1rdm3159-p1rdt1436lv) Units=km Length=0.0194973 bus1=p1rdt1436lv.1.2 bus2=p1rdm3159.1.2 switch=n enabled=y phases=2 Linecode=1P_OH_AL_2/0_Rucina_0_416_0_2_2_2_2_2_2_2_2_2_2_2_2_2_2_2_2_2_2_2_2_2_2_2_2_2_2_2_2_2

New Line.l(r:p1rdt1642lv-p1rlv1790) Units=km Length=0.0230915 bus1=p1rdt1642lv.1.2 bus2=p1rlv1790.1.2 switch=n enabled=y phases=2 Linecode=1P_OH_AL_2/0_Rucina_0_416_0_2_2_2_2_2_2_2_2_2_2_2_2_2_2_2_2_2_2_2_2_2_2_2_2_2_2_2_2_2

New Line.l(r:p1rdt1642lv-p1rlv5560) Units=km Length=0.0230915 bus1=p1rdt1642lv.1.2 bus2=p1rlv5560.1.2 switch=n enabled=y phases=2 Linecode=1P_OH_AL_2/0_Rucina_0_416_0_2_2_2_2_2_2_2_2_2_2_2_2_2_2_2_2_2_2_2_2_2_2_2_2_2_2_2_2_2

New Line.l(r:p1rdt1760lv-p1rlv1933) Units=km Length=0.0638221 bus1=p1rdt1760lv.1.2 bus2=p1rlv1933.1.2 switch=n enabled=y phases=2 Linecode=1P_OH_AL_4/0_Zuzara_0_416_0_2_2_2_2_2_2_2_2_2_2_2_2_2_2_2_2_2_2_2_2_2_2_2_2_2_2_2_2_2

New Line.l(r:p1rdt1761lv-p1rlv1935) Units=km Length=0.020215 bus1=p1rdt1761lv.1.2 bus2=p1rlv1935.1.2 switch=n enabled=y phases=2 Linecode=1P_OH_AL_2/0_Rucina_0_416_0_2_2_2_2_2_2_2_2_2_2_2_2_2_2_2_2_2_2_2_2_2_2_2_2_2_2_2_2_2

New Line.l(r:p1rdt1761lv-p1rlv6732) Units=km Length=0.020215 bus1=p1rdt1761lv.1.2 bus2=p1rlv6732.1.2 switch=n enabled=y phases=2 Linecode=1P_OH_AL_2/0_Rucina_0_416_0_2_2_2_2_2_2_2_2_2_2_2_2_2_2_2_2_2_2_2_2_2_2_2_2_2_2_2_2_2

New Line.l(r:p1rdt1762lv-p1rlv1936) Units=km Length=0.0354462 bus1=p1rdt1762lv.1.2 bus2=p1rlv1936.1.2 switch=n enabled=y phases=2 Linecode=1P_OH_AL_4/0_Zuzara_0_416_0_2_2_2_2_2_2_2_2_2_2_2_2_2_2_2_2_2_2_2_2_2_2_2_2_2_2_2_2_2

New Line.l(r:p1rdt1762lv-p1rlv2479) Units=km Length=0.0354462 bus1=p1rdt1762lv.1.2 bus2=p1rlv2479.1.2 switch=n enabled=y phases=2 Linecode=1P_OH_AL_4/0_Zuzara_0_416_0_2_2_2_2_2_2_2_2_2_2_2_2_2_2_2_2_2_2_2_2_2_2_2_2_2_2_2_2_2

New Line.l(r:p1rdt1868lv-p1rlv2060) Units=km Length=0.0649019 bus1=p1rdt1868lv.1.2 bus2=p1rlv2060.1.2 switch=n enabled=y phases=2 Linecode=1P_OH_AL_4/0_Zuzara_0_416_0_2_2_2_2_2_2_2_2_2_2_2_2_2_2_2_2_2_2_2_2_2_2_2_2_2_2_2_2_2

New Line.l(r:p1rdt1868lv-p1rlv5296) Units=km Length=0.0649019 bus1=p1rdt1868lv.1.2 bus2=p1rlv5296.1.2 switch=n enabled=y phases=2 Linecode=1P_OH_AL_4/0_Zuzara_0_416_0_2_2_2_2_2_2_2_2_2_2_2_2_2_2_2_2_2_2_2_2_2_2_2_2_2_2_2_2_2

New Line.l(r:p1rdt1869lv-p1rlv2061) Units=km Length=0.026675 bus1=p1rdt1869lv.1.2 bus2=p1rlv2061.1.2 switch=n enabled=y phases=2 Linecode=1P_OH_AL_2/0_Rucina_0_416_0_2_2_2_2_2_2_2_2_2_2_2_2_2_2_2_2_2_2_2_2_2_2_2_2_2_2_2_2_2

New Line.l(r:p1rdt1869lv-p1rlv10603) Units=km Length=0.026675 bus1=p1rdt1869lv.1.2 bus2=p1rlv10603.1.2 switch=n enabled=y phases=2 Linecode=1P_OH_AL_2/0_Rucina_0_416_0_2_2_2_2_2_2_2_2_2_2_2_2_2_2_2_2_2_2_2_2_2_2_2_2_2_2_2_2_2

New Line.l(r:p1rdt1870lv-p1rlv2062) Units=km Length=0.001 bus1=p1rdt1870lv.1.2 bus2=p1rlv2062.1.2 switch=n enabled=y phases=2 Linecode=1P_OH_AL_4_Periwinkle_0_416_0_2_2_2_2_2_2_2_2_2_2_2_2_2_2_2_2_2_2_2_2_2_2_2_2_2_2_2_2_2

New Line.l(r:p1rdt1871lv-p1rlv2064) Units=km Length=0.029322800000000003 bus1=p1rdt1871lv.1.2 bus2=p1rlv2064.1.2 switch=n enabled=y phases=2 Linecode=1P_OH_AL_4/0_Zuzara_0_416_0_2_2_2_2_2_2_2_2_2_2_2_2_2_2_2_2_2_2_2_2_2_2_2_2_2_2_2_2_2

New Line.l(r:p1rdt1871lv-p1rlv7821) Units=km Length=0.0226668 bus1=p1rdt1871lv.1.2 bus2=p1rlv7821.1.2 switch=n enabled=y phases=2 Linecode=1P_OH_AL_2/0_Rucina_0_416_0_2_2_2_2_2_2_2_2_2_2_2_2_2_2_2_2_2_2_2_2_2_2_2_2_2_2_2_2_2

New Line.l(r:p1rdt1871lv-p1rlv10080) Units=km Length=0.014825 bus1=p1rdt1871lv.1.2 bus2=p1rlv10080.1.2 switch=n enabled=y phases=2 Linecode=1P_OH_AL_2/0_Rucina_0_416_0_2_2_2_2_2_2_2_2_2_2_2_2_2_2_2_2_2_2_2_2_2_2_2_2_2_2_2_2_2

New Line.l(r:p1rdt1871lv-p1rlv11998) Units=km Length=0.0280787 bus1=p1rdt1871lv.1.2 bus2=p1rlv11998.1.2 switch=n enabled=y phases=2 Linecode=1P_OH_AL_4/0_Zuzara_0_416_0_2_2_2_2_2_2_2_2_2_2_2_2_2_2_2_2_2_2_2_2_2_2_2_2_2_2_2_2_2

New Line.l(r:p1rdt1973lv-p1rlv2191) Units=km Length=0.0790946 bus1=p1rdt1973lv.1.2 bus2=p1rlv2191.1.2 switch=n enabled=y phases=2 Linecode=1P_OH_AL_4/0_Zuzara_0_416_0_2_2_2_2_2_2_2_2_2_2_2_2_2_2_2_2_2_2_2_2_2_2_2_2_2_2_2_2_2

New Line.l(r:p1rdt1973lv-p1rlv3930) Units=km Length=0.0518952 bus1=p1rdt1973lv.1.2 bus2=p1rlv3930.1.2 switch=n enabled=y phases=2 Linecode=1P_OH_AL_4/0_Zuzara_0_416_0_2_2_2_2_2_2_2_2_2_2_2_2_2_2_2_2_2_2_2_2_2_2_2_2_2_2_2_2_2

New Line.l(r:p1rdt1973lv-p1rlv3931) Units=km Length=0.07527380000000002 bus1=p1rdt1973lv.1.2 bus2=p1rlv3931.1.2 switch=n enabled=y phases=2 Linecode=1P_OH_AL_4/0_Zuzara_0_416_0_2_2_2_2_2_2_2_2_2_2_2_2_2_2_2_2_2_2_2_2_2_2_2_2_2_2_2_2_2

New Line.l(r:p1rdt1974lv-p1rlv2192) Units=km Length=0.00677764 bus1=p1rdt1974lv.1.2 bus2=p1rlv2192.1.2 switch=n enabled=y phases=2 Linecode=1P_OH_AL_2/0_Rucina_0_416_0_2_2_2_2_2_2_2_2_2_2_2_2_2_2_2_2_2_2_2_2_2_2_2_2_2_2_2_2_2

New Line.l(r:p1rdt1974lv-p1rlv4497) Units=km Length=0.00677764 bus1=p1rdt1974lv.1.2 bus2=p1rlv4497.1.2 switch=n enabled=y phases=2 Linecode=1P_OH_AL_2/0_Rucina_0_416_0_2_2_2_2_2_2_2_2_2_2_2_2_2_2_2_2_2_2_2_2_2_2_2_2_2_2_2_2_2

New Line.l(r:p1rdt2106lv-p1rlv2347) Units=km Length=0.034894 bus1=p1rdt2106lv.1.2 bus2=p1rlv2347.1.2 switch=n enabled=y phases=2 Linecode=1P_OH_AL_4/0_Zuzara_0_416_0_2_2_2_2_2_2_2_2_2_2_2_2_2_2_2_2_2_2_2_2_2_2_2_2_2_2_2_2_2

New Line.l(r:p1rdt2107lv-p1rlv2348) Units=km Length=0.029032000000000002 bus1=p1rdt2107lv.1.2 bus2=p1rlv2348.1.2 switch=n enabled=y phases=2 Linecode=1P_OH_AL_4/0_Zuzara_0_416_0_2_2_2_2_2_2_2_2_2_2_2_2_2_2_2_2_2_2_2_2_2_2_2_2_2_2_2_2_2

New Line.l(r:p1rdt2107lv-p1rlv11572) Units=km Length=0.029032000000000002 bus1=p1rdt2107lv.1.2 bus2=p1rlv11572.1.2 switch=n enabled=y phases=2 Linecode=1P_OH_AL_4/0_Zuzara_0_416_0_2_2_2_2_2_2_2_2_2_2_2_2_2_2_2_2_2_2_2_2_2_2_2_2_2_2_2_2_2

New Line.l(r:p1rdm4530-p1rlv3682) Units=km Length=0.0154494 bus1=p1rdm4530.1.2 bus2=p1rlv3682.1.2 switch=n enabled=y phases=2 Linecode=1P_OH_AL_2/0_Rucina_0_416_0_2_2_2_2_2_2_2_2_2_2_2_2_2_2_2_2_2_2_2_2_2_2_2_2_2_2_2_2_2

New Line.l(r:p1rdm4530-p1rdt2109lv) Units=km Length=0.0466647 bus1=p1rdt2109lv.1.2 bus2=p1rdm4530.1.2 switch=n enabled=y phases=2 Linecode=1P_OH_AL_4/0_Zuzara_0_416_0_2_2_2_2_2_2_2_2_2_2_2_2_2_2_2_2_2_2_2_2_2_2_2_2_2_2_2_2_2

New Line.l(r:p1rdm4531-p1rlv4203) Units=km Length=0.0116357 bus1=p1rdm4531.1.2 bus2=p1rlv4203.1.2 switch=n enabled=y phases=2 Linecode=1P_OH_AL_2/0_Rucina_0_416_0_2_2_2_2_2_2_2_2_2_2_2_2_2_2_2_2_2_2_2_2_2_2_2_2_2_2_2_2_2

New Line.l(r:p1rdm4529-p1rlv2350) Units=km Length=0.0647354 bus1=p1rdm4529.1.2 bus2=p1rlv2350.1.2 switch=n enabled=y phases=2 Linecode=1P_OH_AL_4/0_Zuzara_0_416_0_2_2_2_2_2_2_2_2_2_2_2_2_2_2_2_2_2_2_2_2_2_2_2_2_2_2_2_2_2

New Line.l(r:p1rdm4529-p1rdm4531) Units=km Length=0.0389531 bus1=p1rdm4531.1.2 bus2=p1rdm4529.1.2 switch=n enabled=y phases=2 Linecode=1P_OH_AL_4/0_Zuzara_0_416_0_2_2_2_2_2_2_2_2_2_2_2_2_2_2_2_2_2_2_2_2_2_2_2_2_2_2_2_2_2

New Line.l(r:p1rdm4531-p1rdt2109lv) Units=km Length=0.0194698 bus1=p1rdt2109lv.1.2 bus2=p1rdm4531.1.2 switch=n enabled=y phases=2 Linecode=1P_OH_AL_2/0_Rucina_0_416_0_2_2_2_2_2_2_2_2_2_2_2_2_2_2_2_2_2_2_2_2_2_2_2_2_2_2_2_2_2

New Line.l(r:p1rdt2110lv-p1rlv2351) Units=km Length=0.001 bus1=p1rdt2110lv.1.2 bus2=p1rlv2351.1.2 switch=n enabled=y phases=2 Linecode=1P_OH_AL_4_Periwinkle_0_416_0_2_2_2_2_2_2_2_2_2_2_2_2_2_2_2_2_2_2_2_2_2_2_2_2_2_2_2_2_2

New Line.l(r:p1rdt2216lv-p1rlv2478) Units=km Length=0.001 bus1=p1rdt2216lv.1.2 bus2=p1rlv2478.1.2 switch=n enabled=y phases=2 Linecode=1P_OH_AL_4_Periwinkle_0_416_0_2_2_2_2_2_2_2_2_2_2_2_2_2_2_2_2_2_2_2_2_2_2_2_2_2_2_2_2_2

New Line.l(r:p1rdt2321lv-p1rlv2614) Units=km Length=0.030409300000000004 bus1=p1rdt2321lv.1.2 bus2=p1rlv2614.1.2 switch=n enabled=y phases=2 Linecode=1P_OH_AL_4/0_Zuzara_0_416_0_2_2_2_2_2_2_2_2_2_2_2_2_2_2_2_2_2_2_2_2_2_2_2_2_2_2_2_2_2

New Line.l(r:p1rdt2321lv-p1rlv8734) Units=km Length=0.0509049 bus1=p1rdt2321lv.1.2 bus2=p1rlv8734.1.2 switch=n enabled=y phases=2 Linecode=1P_OH_AL_4/0_Zuzara_0_416_0_2_2_2_2_2_2_2_2_2_2_2_2_2_2_2_2_2_2_2_2_2_2_2_2_2_2_2_2_2

New Line.l(r:p1rdt2321lv-p1rlv10464) Units=km Length=0.0371669 bus1=p1rdt2321lv.1.2 bus2=p1rlv10464.1.2 switch=n enabled=y phases=2 Linecode=1P_OH_AL_4/0_Zuzara_0_416_0_2_2_2_2_2_2_2_2_2_2_2_2_2_2_2_2_2_2_2_2_2_2_2_2_2_2_2_2_2

New Line.l(r:p1rdt2546lv-p1rlv2891) Units=km Length=0.0156468 bus1=p1rdt2546lv.1.2 bus2=p1rlv2891.1.2 switch=n enabled=y phases=2 Linecode=1P_OH_AL_2/0_Rucina_0_416_0_2_2_2_2_2_2_2_2_2_2_2_2_2_2_2_2_2_2_2_2_2_2_2_2_2_2_2_2_2

New Line.l(r:p1rdt2546lv-p1rlv6355) Units=km Length=0.0253298 bus1=p1rdt2546lv.1.2 bus2=p1rlv6355.1.2 switch=n enabled=y phases=2 Linecode=1P_OH_AL_2/0_Rucina_0_416_0_2_2_2_2_2_2_2_2_2_2_2_2_2_2_2_2_2_2_2_2_2_2_2_2_2_2_2_2_2

New Line.l(r:p1rdt2546lv-p1rlv12935) Units=km Length=0.0305593 bus1=p1rdt2546lv.1.2 bus2=p1rlv12935.1.2 switch=n enabled=y phases=2 Linecode=1P_OH_AL_4/0_Zuzara_0_416_0_2_2_2_2_2_2_2_2_2_2_2_2_2_2_2_2_2_2_2_2_2_2_2_2_2_2_2_2_2

New Line.l(r:p1rdt2630lv-p1rlv2998) Units=km Length=0.001 bus1=p1rdt2630lv.1.2 bus2=p1rlv2998.1.2 switch=n enabled=y phases=2 Linecode=1P_OH_AL_4_Periwinkle_0_416_0_2_2_2_2_2_2_2_2_2_2_2_2_2_2_2_2_2_2_2_2_2_2_2_2_2_2_2_2_2

New Line.l(r:p1rdt2829lv-p1rlv3260) Units=km Length=0.030619 bus1=p1rdt2829lv.1.2 bus2=p1rlv3260.1.2 switch=n enabled=y phases=2 Linecode=1P_OH_AL_4/0_Zuzara_0_416_0_2_2_2_2_2_2_2_2_2_2_2_2_2_2_2_2_2_2_2_2_2_2_2_2_2_2_2_2_2

New Line.l(r:p1rdt2830lv-p1rlv3261) Units=km Length=0.017968 bus1=p1rdt2830lv.1.2 bus2=p1rlv3261.1.2 switch=n enabled=y phases=2 Linecode=1P_OH_AL_2/0_Rucina_0_416_0_2_2_2_2_2_2_2_2_2_2_2_2_2_2_2_2_2_2_2_2_2_2_2_2_2_2_2_2_2

New Line.l(r:p1rdt2830lv-p1rlv9956) Units=km Length=0.017968 bus1=p1rdt2830lv.1.2 bus2=p1rlv9956.1.2 switch=n enabled=y phases=2 Linecode=1P_OH_AL_2/0_Rucina_0_416_0_2_2_2_2_2_2_2_2_2_2_2_2_2_2_2_2_2_2_2_2_2_2_2_2_2_2_2_2_2

New Line.l(r:p1rdt2831lv-p1rlv3262) Units=km Length=0.0543729 bus1=p1rdt2831lv.1.2 bus2=p1rlv3262.1.2 switch=n enabled=y phases=2 Linecode=1P_OH_AL_4/0_Zuzara_0_416_0_2_2_2_2_2_2_2_2_2_2_2_2_2_2_2_2_2_2_2_2_2_2_2_2_2_2_2_2_2

New Line.l(r:p1rdt2831lv-p1rlv12541) Units=km Length=0.0819283 bus1=p1rdt2831lv.1.2 bus2=p1rlv12541.1.2 switch=n enabled=y phases=2 Linecode=1P_OH_AL_4/0_Zuzara_0_416_0_2_2_2_2_2_2_2_2_2_2_2_2_2_2_2_2_2_2_2_2_2_2_2_2_2_2_2_2_2

New Line.l(r:p1rdm5898-p1rlv8315) Units=km Length=0.0389107 bus1=p1rdm5898.1.2 bus2=p1rlv8315.1.2 switch=n enabled=y phases=2 Linecode=1P_OH_AL_4/0_Zuzara_0_416_0_2_2_2_2_2_2_2_2_2_2_2_2_2_2_2_2_2_2_2_2_2_2_2_2_2_2_2_2_2

New Line.l(r:p1rdm5898-p1rlv12789) Units=km Length=0.0987477 bus1=p1rdm5898.1.2 bus2=p1rlv12789.1.2 switch=n enabled=y phases=2 Linecode=1P_OH_AL_4/0_Zuzara_0_416_0_2_2_2_2_2_2_2_2_2_2_2_2_2_2_2_2_2_2_2_2_2_2_2_2_2_2_2_2_2
