New Line.l(r:p3uhs2_1247-p3umv14) Units=km Length=0.23665200000000003 bus1=p3uhs2_1247-p3umv14x.1.2.3 bus2=p3uhs2_1247-p3umv14x_b1_1.1.2.3 switch=n enabled=y phases=3 Linecode=3P_OH_AL_ACSR_1033kcmil_Curlew_12.47_1_3_3_3_3

New Line.l(r:p3udt29109-p3udt31188) Units=km Length=0.197743 bus1=p3udt29109.1.2.3 bus2=p3udt31188.1.2.3 switch=n enabled=y phases=3 Linecode=3P_OH_AL_ACSR_4/0_Penguin_12_47_0_3_3_3_3

New Line.l(r:p3udt29109-p3udt31191) Units=km Length=0.0198996 bus1=p3udt31191.1.2.3 bus2=p3udt29109.1.2.3 switch=n enabled=y phases=3 Linecode=3P_OH_AL_ACSR_4/0_Penguin_12_47_0_3_3_3_3

New Line.l(r:p3udt11308-p3udt31191) Units=km Length=0.268568 bus1=p3udt11308.1.2.3 bus2=p3udt31191.1.2.3 switch=n enabled=y phases=3 Linecode=3P_OH_AL_ACSR_4/0_Penguin_12_47_0_3_3_3_3

New Line.l(r:p3udt11308-p3udt28464) Units=km Length=0.15873 bus1=p3udt28464.1.2.3 bus2=p3udt11308.1.2.3 switch=n enabled=y phases=3 Linecode=3P_OH_AL_ACSR_4/0_Penguin_12_47_0_3_3_3_3

New Line.l(r:p3udt25914-p3umv13) Units=km Length=0.123697 bus1=p3udt25914.1.2.3 bus2=p3umv13.1.2.3 switch=n enabled=y phases=3 Linecode=3P_OH_AL_ACSR_4/0_Penguin_12_47_0_3_3_3_3

New Line.l(r:p3udt24859-p3udt25914) Units=km Length=0.28872 bus1=p3udt24859.1.2.3 bus2=p3udt25914.1.2.3 switch=n enabled=y phases=3 Linecode=3P_OH_AL_ACSR_4/0_Penguin_12_47_0_3_3_3_3

New Line.l(r:p3udt24859-p3udt28464) Units=km Length=0.0644487 bus1=p3udt28464.1.2.3 bus2=p3udt24859.1.2.3 switch=n enabled=y phases=3 Linecode=3P_OH_AL_ACSR_4/0_Penguin_12_47_0_3_3_3_3

New Line.l(r:p3udt28464-p3umv14) Units=km Length=0.220946 bus1=p3umv14.1.2.3 bus2=p3udt28464.1.2.3 switch=n enabled=y phases=3 Linecode=3P_OH_AL_ACSR_4/0_Penguin_12_47_0_3_3_3_3

New Line.l(r:p3udt28464lv-p3ulv60654) Units=km Length=0.0116159 bus1=p3udt28464lv.1.2.3 bus2=p3ulv60654.1.2.3 switch=n enabled=y phases=3 Linecode=3P_UG_AL_750kcmil_25_0_416_0_3_3_3_3

New Line.l(r:p3udt11308lv-p3ulv14191) Units=km Length=0.0081816 bus1=p3udt11308lv.1.2.3 bus2=p3ulv14191.1.2.3 switch=n enabled=y phases=3 Linecode=3P_UG_AL_750kcmil_25_0_416_0_3_3_3_3

New Line.l(r:p3udt18953lv-p3ulv29000) Units=km Length=0.012783100000000002 bus1=p3udt18953lv.1.2.3 bus2=p3ulv29000.1.2.3 switch=n enabled=y phases=3 Linecode=3P_UG_AL_750kcmil_25_0_416_0_3_3_3_3

New Line.l(r:p3udt13628lv-p3ulv18110) Units=km Length=0.0203145 bus1=p3udt13628lv.1.2.3 bus2=p3ulv18110.1.2.3 switch=n enabled=y phases=3 Linecode=3P_UG_AL_750kcmil_25_0_416_0_3_3_3_3

New Line.l(r:p3udt11307lv-p3ulv14190) Units=km Length=0.0119722 bus1=p3udt11307lv.1.2.3 bus2=p3ulv14190.1.2.3 switch=n enabled=y phases=3 Linecode=3P_UG_AL_750kcmil_25_0_416_0_3_3_3_3

New Line.l(r:p3udt11307-p3udt13628) Units=km Length=0.103707 bus1=p3udt13628.1.2.3 bus2=p3udt11307.1.2.3 switch=n enabled=y phases=3 Linecode=3P_OH_AL_ACSR_4/0_Penguin_12_47_0_3_3_3_3

New Line.l(r:p3udt13628-p3udt18953) Units=km Length=0.113012 bus1=p3udt18953.1.2.3 bus2=p3udt13628.1.2.3 switch=n enabled=y phases=3 Linecode=3P_OH_AL_ACSR_4/0_Penguin_12_47_0_3_3_3_3

New Line.l(r:p3udt11308-p3udt18953) Units=km Length=0.236641 bus1=p3udt11308.1.2.3 bus2=p3udt18953.1.2.3 switch=n enabled=y phases=3 Linecode=3P_OH_AL_ACSR_4/0_Penguin_12_47_0_3_3_3_3

New Line.l(r:p3udt26493lv-p3ulv52235) Units=km Length=0.0121459 bus1=p3udt26493lv.1.2.3 bus2=p3ulv52235.1.2.3 switch=n enabled=y phases=3 Linecode=3P_UG_AL_750kcmil_25_0_416_0_3_3_3_3

New Line.l(r:p3udt11308-p3udt26493) Units=km Length=0.304667 bus1=p3udt11308.1.2.3 bus2=p3udt26493.1.2.3 switch=n enabled=y phases=3 Linecode=3P_OH_AL_ACSR_4/0_Penguin_12_47_0_3_3_3_3

New Line.l(r:p3udt31191lv-p3ulv74470) Units=km Length=0.018996 bus1=p3udt31191lv.1.2.3 bus2=p3ulv74470.1.2.3 switch=n enabled=y phases=3 Linecode=3P_UG_AL_750kcmil_25_0_416_0_3_3_3_3

New Line.l(r:p3udm75322-p3ulv63723) Units=km Length=0.0203432 bus1=p3udm75322.1.2.3 bus2=p3ulv63723.1.2.3 switch=n enabled=y phases=3 Linecode=3P_UG_AL_750kcmil_25_0_416_0_3_3_3_3

New Line.l(r:p3udm75322-p3udt29109lv) Units=km Length=0.039808 bus1=p3udt29109lv.1.2.3 bus2=p3udm75322.1.2.3 switch=n enabled=y phases=3 Linecode=3P_UG_AL_750kcmil_25_0_416_0_3_3_3_3

New Line.l(r:p3udm75323-p3ulv73709) Units=km Length=0.0218708 bus1=p3udm75323.1.2.3 bus2=p3ulv73709.1.2.3 switch=n enabled=y phases=3 Linecode=3P_UG_AL_350kcmil_15_0_416_0_3_3_3_3

New Line.l(r:p3udm75323-p3udt29109lv) Units=km Length=0.0199085 bus1=p3udt29109lv.1.2.3 bus2=p3udm75323.1.2.3 switch=n enabled=y phases=3 Linecode=3P_UG_AL_350kcmil_15_0_416_0_3_3_3_3

New Line.l(r:p3udt31188lv-p3ulv74466) Units=km Length=0.0373237 bus1=p3udt31188lv.1.2.3 bus2=p3ulv74466.1.2.3 switch=n enabled=y phases=3 Linecode=3P_UG_AL_750kcmil_25_0_416_0_3_3_3_3

New Line.l(r:p3udt10286lv-p3ulv12631) Units=km Length=0.013518 bus1=p3udt10286lv.1.2.3 bus2=p3ulv12631.1.2.3 switch=n enabled=y phases=3 Linecode=3P_UG_AL_750kcmil_25_0_416_0_3_3_3_3

New Line.l(r:p3udt23912lv-p3ulv42968) Units=km Length=0.026983200000000002 bus1=p3udt23912lv.1.2.3 bus2=p3ulv42968.1.2.3 switch=n enabled=y phases=3 Linecode=3P_UG_AL_750kcmil_25_0_416_0_3_3_3_3

New Line.l(r:p3udt30777lv-p3ulv72187) Units=km Length=0.0212478 bus1=p3udt30777lv.1.2.3 bus2=p3ulv72187.1.2.3 switch=n enabled=y phases=3 Linecode=3P_UG_AL_750kcmil_25_0_416_0_3_3_3_3

New Line.l(r:p3udt23912-p3udt30777) Units=km Length=0.0986727 bus1=p3udt23912.1.2.3 bus2=p3udt30777.1.2.3 switch=n enabled=y phases=3 Linecode=3P_OH_AL_ACSR_4/0_Penguin_12_47_0_3_3_3_3

New Line.l(r:p3udt10286-p3udt23912) Units=km Length=0.224766 bus1=p3udt10286.1.2.3 bus2=p3udt23912.1.2.3 switch=n enabled=y phases=3 Linecode=3P_OH_AL_ACSR_4/0_Penguin_12_47_0_3_3_3_3

New Line.l(r:p3udt10286-p3udt31188) Units=km Length=0.137978 bus1=p3udt31188.1.2.3 bus2=p3udt10286.1.2.3 switch=n enabled=y phases=3 Linecode=3P_OH_AL_ACSR_4/0_Penguin_12_47_0_3_3_3_3

New Line.l(r:p3udt32280lv-p3ulv80588) Units=km Length=0.0367361 bus1=p3udt32280lv.1.2.3 bus2=p3ulv80588.1.2.3 switch=n enabled=y phases=3 Linecode=3P_UG_AL_750kcmil_25_0_416_0_3_3_3_3

New Line.l(r:p3udt31188-p3udt32280) Units=km Length=0.155239 bus1=p3udt31188.1.2.3 bus2=p3udt32280.1.2.3 switch=n enabled=y phases=3 Linecode=3P_OH_AL_ACSR_4/0_Penguin_12_47_0_3_3_3_3

New Line.l(r:p3udt24859lv-p3ulv46159) Units=km Length=0.0886125 bus1=p3udt24859lv.1.2.3 bus2=p3ulv46159.1.2.3 switch=n enabled=y phases=3 Linecode=3P_UG_AL_750kcmil_25_0_416_0_3_3_3_3

New Line.l(r:p3udt25914lv-p3ulv49955) Units=km Length=0.0316197 bus1=p3udt25914lv.1.2.3 bus2=p3ulv49955.1.2.3 switch=n enabled=y phases=3 Linecode=3P_UG_AL_350kcmil_15_0_416_0_3_3_3_3

New Line.l(r:p3umv13-p3umv26) Units=km Length=0.271366 bus1=p3umv13.1.2.3 bus2=p3umv26.1.2.3 switch=n enabled=y phases=3 Linecode=3P_OH_AL_ACSR_4/0_Penguin_12_47_0_3_3_3_3

New Line.l(r:p3udt8071lv-p3ulv9471) Units=km Length=0.0345267 bus1=p3udt8071lv.1.2.3 bus2=p3ulv9471.1.2.3 switch=n enabled=y phases=3 Linecode=3P_UG_AL_750kcmil_25_0_416_0_3_3_3_3

New Line.l(r:p3udt32281lv-p3ulv80589) Units=km Length=0.006230970000000001 bus1=p3udt32281lv.1.2.3 bus2=p3ulv80589.1.2.3 switch=n enabled=y phases=3 Linecode=3P_UG_AL_750kcmil_25_0_416_0_3_3_3_3

New Line.l(r:p3udt32281-p3udt8071) Units=km Length=0.356691 bus1=p3udt8071.1.2.3 bus2=p3udt32281.1.2.3 switch=n enabled=y phases=3 Linecode=3P_OH_AL_ACSR_4/0_Penguin_12_47_0_3_3_3_3

New Line.l(r:p3udt25914-p3udt8071) Units=km Length=0.0812205 bus1=p3udt25914.1.2.3 bus2=p3udt8071.1.2.3 switch=n enabled=y phases=3 Linecode=3P_OH_AL_ACSR_4/0_Penguin_12_47_0_3_3_3_3

New Line.l(r:p3udt21865-p3umv26) Units=km Length=0.204273 bus1=p3udt21865-p3umv26x.1.2.3 bus2=p3udt21865.1.2.3 switch=n enabled=y phases=3 Linecode=3P_OH_AL_ACSR_1033kcmil_Curlew_12.47_1_3_3_3_3

New Line.l(r:p3udt23912-p3umv3) Units=km Length=0.269774 bus1=p3udt23912-p3umv3x.1.2.3 bus2=p3udt23912.1.2.3 switch=n enabled=y phases=3 Linecode=3P_OH_AL_ACSR_1033kcmil_Curlew_12.47_1_3_3_3_3

New Line.elbswitch(r:p3udt21865-p3umv26)p3u_206652 Units=km Length=0.001 bus1=p3umv26.1.2.3 bus2=p3udt21865-p3umv26x.1.2.3 switch=y enabled=n phases=3 Linecode=elbswitch_3_3_3_3

New Line.l(r:p3uhs2_1247-p3umv14)_disconnect Units=km Length=0.001 bus1=p3uhs2_1247-p3umv14x_b1_1.1.2.3 bus2=p3uhs2_1247-p3umv14x_b2_1.1.2.3 switch=y enabled=y phases=3 Linecode=3P_OH_AL_ACSR_1033kcmil_Curlew_12.47_1_3_3_3_3

New Line.l(r:p3uhs2_1247-p3umv14)_cont Units=km Length=2.138868 bus1=p3uhs2_1247-p3umv14x_b2_1.1.2.3 bus2=p3umv14.1.2.3 switch=n enabled=y phases=3 Linecode=3P_OH_AL_ACSR_1033kcmil_Curlew_12.47_1_3_3_3_3

