New Load.load_p3ulv9471 conn=wye bus1=p3ulv9471.1.2.3 kV=0.48 Vminpu=0.8 Vmaxpu=1.2 model=1 kW=161.442 kvar=53.063419308286015 Phases=3

New Load.load_p3ulv12631 conn=wye bus1=p3ulv12631.1.2.3 kV=0.48 Vminpu=0.8 Vmaxpu=1.2 model=1 kW=115.561 kvar=37.983063878574605 Phases=3

New Load.load_p3ulv14190 conn=wye bus1=p3ulv14190.1.2.3 kV=0.48 Vminpu=0.8 Vmaxpu=1.2 model=1 kW=133.871 kvar=44.001269844399594 Phases=3

New Load.load_p3ulv14191 conn=wye bus1=p3ulv14191.1.2.3 kV=0.48 Vminpu=0.8 Vmaxpu=1.2 model=1 kW=109.471 kvar=35.98137767803534 Phases=3

New Load.load_p3ulv18110 conn=wye bus1=p3ulv18110.1.2.3 kV=0.48 Vminpu=0.8 Vmaxpu=1.2 model=1 kW=129.841 kvar=42.67667290052877 Phases=3

New Load.load_p3umv13 conn=wye bus1=p3umv13.1.2.3 kV=12.47 Vminpu=0.8 Vmaxpu=1.2 model=1 kW=796.058 kvar=161.64647126698418 Phases=3

New Load.load_p3umv14 conn=wye bus1=p3umv14.1.2.3 kV=12.47 Vminpu=0.8 Vmaxpu=1.2 model=1 kW=1012.2400000000001 kvar=332.7071986262525 Phases=3

New Load.load_p3ulv29000 conn=wye bus1=p3ulv29000.1.2.3 kV=0.48 Vminpu=0.8 Vmaxpu=1.2 model=1 kW=90.2009 kvar=29.647602102828117 Phases=3

New Load.load_p3ulv42968 conn=wye bus1=p3ulv42968.1.2.3 kV=0.48 Vminpu=0.8 Vmaxpu=1.2 model=1 kW=96.641 kvar=19.62379202233081 Phases=3

New Load.load_p3ulv46159 conn=wye bus1=p3ulv46159.1.2.3 kV=0.48 Vminpu=0.8 Vmaxpu=1.2 model=1 kW=156.742 kvar=31.8278205850951 Phases=3

New Load.load_p3ulv49955 conn=wye bus1=p3ulv49955.1.2.3 kV=0.48 Vminpu=0.8 Vmaxpu=1.2 model=1 kW=34.5703 kvar=11.362708121264852 Phases=3

New Load.load_p3ulv52235 conn=wye bus1=p3ulv52235.1.2.3 kV=0.48 Vminpu=0.8 Vmaxpu=1.2 model=1 kW=286.923 kvar=94.30702951023495 Phases=3

New Load.load_p3umv26 conn=wye bus1=p3umv26.1.2.3 kV=12.47 Vminpu=0.8 Vmaxpu=1.2 model=1 kW=1270.0799999999997 kvar=257.90074369803614 Phases=3

New Load.load_p3ulv60654 conn=wye bus1=p3ulv60654.1.2.3 kV=0.48 Vminpu=0.8 Vmaxpu=1.2 model=1 kW=222.022 kvar=72.97510240002154 Phases=3

New Load.load_p3ulv63723 conn=wye bus1=p3ulv63723.1.2.3 kV=0.48 Vminpu=0.8 Vmaxpu=1.2 model=1 kW=88.8009 kvar=29.18744435557771 Phases=3

New Load.load_p3ulv72187 conn=wye bus1=p3ulv72187.1.2.3 kV=0.48 Vminpu=0.8 Vmaxpu=1.2 model=1 kW=141.361 kvar=46.46311379218927 Phases=3

New Load.load_p3ulv73709 conn=wye bus1=p3ulv73709.1.2.3 kV=0.48 Vminpu=0.8 Vmaxpu=1.2 model=1 kW=24.780200000000004 kvar=8.136061132183611 Phases=3

New Load.load_p3ulv74466 conn=wye bus1=p3ulv74466.1.2.3 kV=0.48 Vminpu=0.8 Vmaxpu=1.2 model=1 kW=94.6309 kvar=31.10367268877048 Phases=3

New Load.load_p3ulv74470 conn=wye bus1=p3ulv74470.1.2.3 kV=0.48 Vminpu=0.8 Vmaxpu=1.2 model=1 kW=86.5409 kvar=28.444618277873474 Phases=3

New Load.load_p3ulv80588 conn=wye bus1=p3ulv80588.1.2.3 kV=0.48 Vminpu=0.8 Vmaxpu=1.2 model=1 kW=77.8308 kvar=25.581746853355057 Phases=3

New Load.load_p3ulv80589 conn=wye bus1=p3ulv80589.1.2.3 kV=0.48 Vminpu=0.8 Vmaxpu=1.2 model=1 kW=154.63200000000003 kvar=50.82508055201797 Phases=3

