Clear

New Circuit.feeder_p3uhs2_1247-p3umv14x bus1=p3uhs2_1247-p3umv14x pu=1.03 basekV=12.47 R1=1e-05 X1=1e-05 R0=1e-05 X0=1e-05

Redirect Transformers.dss
Redirect Loads.dss
Redirect LineCodes.dss
Redirect Lines.dss
Redirect Capacitors.dss

Set Voltagebases=[0.48, 12.47]

Calcvoltagebases

Buscoords Buscoords.dss

Solve