New Line.sb6_p3uhs2_1247_194 Units=km Length=0.077369349 bus1=sb6_p3uhs2_1247_bus_6_20.1.2.3 bus2=p3uhs2_1247-p3umv35x.1.2.3 switch=n enabled=y phases=3 Linecode=3P_OH_Code8_3_3_3

New Line.sb6_p3uhs2_1247_192 Units=km Length=0.09284321799999999 bus1=sb6_p3uhs2_1247_bus_6_16.1.2.3 bus2=p3udt20299-p3uhs2_1247x.1.2.3 switch=n enabled=y phases=3 Linecode=3P_OH_Code8_3_3_3

New Line.sb6_p3uhs2_1247_201 Units=km Length=0.123790958 bus1=sb6_p3uhs2_1247_bus_6_13.1.2.3 bus2=p3udt18029-p3uhs2_1247x.1.2.3 switch=n enabled=y phases=3 Linecode=3P_OH_Code8_3_3_3

New Line.sb6_p3uhs2_1247_199 Units=km Length=0.144422784 bus1=sb6_p3uhs2_1247_bus_6_11.1.2.3 bus2=p3udt31865-p3uhs2_1247x.1.2.3 switch=n enabled=y phases=3 Linecode=3P_OH_Code8_3_3_3

New Line.sb6_p3uhs2_1247_197 Units=km Length=0.123790958 bus1=sb6_p3uhs2_1247_bus_6_9.1.2.3 bus2=p3udt11804-p3uhs2_1247x.1.2.3 switch=n enabled=y phases=3 Linecode=3P_OH_Code8_3_3_3

New Line.sb6_p3uhs2_1247_195 Units=km Length=0.09800117500000001 bus1=sb6_p3uhs2_1247_bus_6_19.1.2.3 bus2=p3udt23951-p3uhs2_1247x.1.2.3 switch=n enabled=y phases=3 Linecode=3P_OH_Code8_3_3_3

New Line.sb6_p3uhs2_1247_193 Units=km Length=0.123790958 bus1=sb6_p3uhs2_1247_bus_6_15.1.2.3 bus2=p3udt24404-p3uhs2_1247x.1.2.3 switch=n enabled=y phases=3 Linecode=3P_OH_Code8_3_3_3

New Line.sb6_p3uhs2_1247_191 Units=km Length=0.077369349 bus1=sb6_p3uhs2_1247_bus_6_17.1.2.3 bus2=p3udt20296-p3uhs2_1247x.1.2.3 switch=n enabled=y phases=3 Linecode=3P_OH_Code8_3_3_3

New Line.sb6_p3uhs2_1247_202 Units=km Length=0.103159132 bus1=sb6_p3uhs2_1247_bus_6_12.1.2.3 bus2=sb6_p3uhs2_1247_node_6_6.1.2.3 switch=n enabled=y phases=3 Linecode=3P_OH_Code8_3_3_3

New Line.sb6_p3uhs2_1247_200 Units=km Length=0.144422784 bus1=sb6_p3uhs2_1247_bus_6_14.1.2.3 bus2=p3uhs2_1247-p3umv14x.1.2.3 switch=n enabled=y phases=3 Linecode=3P_OH_Code8_3_3_3

New Line.sb6_p3uhs2_1247_198 Units=km Length=0.144422784 bus1=sb6_p3uhs2_1247_bus_6_10.1.2.3 bus2=sb6_p3uhs2_1247_node_6_2.1.2.3 switch=n enabled=y phases=3 Linecode=3P_OH_Code8_3_3_3

New Line.sb6_p3uhs2_1247_196 Units=km Length=0.123790958 bus1=sb6_p3uhs2_1247_bus_6_18.1.2.3 bus2=p3udt27289-p3uhs2_1247x.1.2.3 switch=n enabled=y phases=3 Linecode=3P_OH_Code8_3_3_3

New Line.sb6_p3uhs2_1247_161 Units=km Length=0.001 bus1=sb6_p3uhs2_1247_node_6_16.1.2.3 bus2=sb6_p3uhs2_1247_node_6_18.1.2.3 switch=y enabled=y phases=3 Linecode=BREAKER_69KV_3_3_3_3

New Line.sb6_p3uhs2_1247_171 Units=km Length=0.001 bus1=sb6_p3uhs2_1247_bus_6_7.1.2.3 bus2=sb6_p3uhs2_1247_bus_6_9.1.2.3 switch=y enabled=y phases=3 Linecode=BREAKER_13KV_3_3_3_3

New Line.sb6_p3uhs2_1247_189 Units=km Length=0.001 bus1=sb6_p3uhs2_1247_bus_6_16.1.2.3 bus2=sb6_p3uhs2_1247_bus_6_19.1.2.3 switch=y enabled=n phases=3 Linecode=BREAKER_13KV_3_3_3_3

New Line.sb6_p3uhs2_1247_378 Units=km Length=0.001 bus1=sb6_p3uhs2_1247_node_6_15.1.2.3 bus2=sb6_p3uhs2_1247_bus_6_1.1.2.3 switch=y enabled=y phases=3 Linecode=DISCONNECT_SWITCH_69KV_3_3_3_3

New Line.sb6_p3uhs2_1247_173 Units=km Length=0.001 bus1=sb6_p3uhs2_1247_bus_6_7.1.2.3 bus2=sb6_p3uhs2_1247_bus_6_11.1.2.3 switch=y enabled=y phases=3 Linecode=BREAKER_13KV_3_3_3_3

New Line.sb6_p3uhs2_1247_190 Units=km Length=0.001 bus1=sb6_p3uhs2_1247_bus_6_17.1.2.3 bus2=sb6_p3uhs2_1247_bus_6_20.1.2.3 switch=y enabled=n phases=3 Linecode=BREAKER_13KV_3_3_3_3

New Line.sb6_p3uhs2_1247_168 Units=km Length=0.001 bus1=sb6_p3uhs2_1247_bus_6_5.1.2.3 bus2=sb6_p3uhs2_1247_bus_6_15.1.2.3 switch=y enabled=y phases=3 Linecode=BREAKER_13KV_3_3_3_3

New Line.sb6_p3uhs2_1247_175 Units=km Length=0.001 bus1=sb6_p3uhs2_1247_bus_6_4.1.2.3 bus2=sb6_p3uhs2_1247_bus_6_6.1.2.3 switch=y enabled=y phases=3 Linecode=DISCONNECT_SWITCH_13KV_3_3_3_3

New Line.sb6_p3uhs2_1247_166 Units=km Length=0.001 bus1=sb6_p3uhs2_1247_bus_6_3.1.2.3 bus2=sb6_p3uhs2_1247_bus_6_5.1.2.3 switch=y enabled=y phases=3 Linecode=DISCONNECT_SWITCH_13KV_3_3_3_3

New Line.sb6_p3uhs2_1247_374 Units=km Length=0.001 bus1=sb6_p3uhs2_1247_node_6_20.1.2.3 bus2=sb6_p3uhs2_1247_bus_6_4.1.2.3 switch=y enabled=y phases=3 Linecode=BREAKER_13KV_3_3_3_3

New Line.sb6_p3uhs2_1247_177 Units=km Length=0.001 bus1=sb6_p3uhs2_1247_bus_6_6.1.2.3 bus2=sb6_p3uhs2_1247_bus_6_19.1.2.3 switch=y enabled=y phases=3 Linecode=BREAKER_13KV_3_3_3_3

New Line.sb6_p3uhs2_1247_154 Units=km Length=0.001 bus1=sb6_p3uhs2_1247_node_6_14.1.2.3 bus2=sb6_p3uhs2_1247_bus_6_2.1.2.3 switch=y enabled=y phases=3 Linecode=DISCONNECT_SWITCH_69KV_3_3_3_3

New Line.sb6_p3uhs2_1247_179 Units=km Length=0.001 bus1=sb6_p3uhs2_1247_bus_6_8.1.2.3 bus2=sb6_p3uhs2_1247_bus_6_14.1.2.3 switch=y enabled=y phases=3 Linecode=BREAKER_13KV_3_3_3_3

New Line.sb6_p3uhs2_1247_159 Units=km Length=0.001 bus1=sb6_p3uhs2_1247_node_6_15.1.2.3 bus2=sb6_p3uhs2_1247_node_6_17.1.2.3 switch=y enabled=y phases=3 Linecode=BREAKER_69KV_3_3_3_3

New Line.sb6_p3uhs2_1247_181 Units=km Length=0.001 bus1=sb6_p3uhs2_1247_bus_6_8.1.2.3 bus2=sb6_p3uhs2_1247_bus_6_12.1.2.3 switch=y enabled=y phases=3 Linecode=BREAKER_13KV_3_3_3_3

New Line.sb6_p3uhs2_1247_183 Units=km Length=0.001 bus1=sb6_p3uhs2_1247_bus_6_10.1.2.3 bus2=sb6_p3uhs2_1247_bus_6_13.1.2.3 switch=y enabled=n phases=3 Linecode=BREAKER_13KV_3_3_3_3

New Line.sb6_p3uhs2_1247_188 Units=km Length=0.001 bus1=sb6_p3uhs2_1247_bus_6_15.1.2.3 bus2=sb6_p3uhs2_1247_bus_6_18.1.2.3 switch=y enabled=n phases=3 Linecode=BREAKER_13KV_3_3_3_3

New Line.sb6_p3uhs2_1247_153 Units=km Length=0.001 bus1=sb6_p3uhs2_1247_node_6_13.1.2.3 bus2=sb6_p3uhs2_1247_node_6_14.1.2.3 switch=y enabled=y phases=3 Linecode=BREAKER_69KV_3_3_3_3

New Line.sb6_p3uhs2_1247_379 Units=km Length=0.001 bus1=sb6_p3uhs2_1247_node_6_16.1.2.3 bus2=sb6_p3uhs2_1247_bus_6_2.1.2.3 switch=y enabled=y phases=3 Linecode=DISCONNECT_SWITCH_69KV_3_3_3_3

New Line.sb6_p3uhs2_1247_170 Units=km Length=0.001 bus1=sb6_p3uhs2_1247_bus_6_5.1.2.3 bus2=sb6_p3uhs2_1247_bus_6_17.1.2.3 switch=y enabled=y phases=3 Linecode=BREAKER_13KV_3_3_3_3

New Line.sb6_p3uhs2_1247_151 Units=km Length=0.001 bus1=p3uhs2_69.1.2.3 bus2=sb6_p3uhs2_1247_bus_6_1.1.2.3 switch=y enabled=y phases=3 Linecode=DISCONNECT_SWITCH_69KV_3_3_3_3

New Line.sb6_p3uhs2_1247_377 Units=km Length=0.001 bus1=sb6_p3uhs2_1247_node_6_13.1.2.3 bus2=sb6_p3uhs2_1247_bus_6_1.1.2.3 switch=y enabled=y phases=3 Linecode=DISCONNECT_SWITCH_69KV_3_3_3_3

New Line.sb6_p3uhs2_1247_172 Units=km Length=0.001 bus1=sb6_p3uhs2_1247_bus_6_7.1.2.3 bus2=sb6_p3uhs2_1247_bus_6_10.1.2.3 switch=y enabled=y phases=3 Linecode=BREAKER_13KV_3_3_3_3

New Line.sb6_p3uhs2_1247_169 Units=km Length=0.001 bus1=sb6_p3uhs2_1247_bus_6_5.1.2.3 bus2=sb6_p3uhs2_1247_bus_6_16.1.2.3 switch=y enabled=y phases=3 Linecode=BREAKER_13KV_3_3_3_3

New Line.sb6_p3uhs2_1247_184 Units=km Length=0.001 bus1=sb6_p3uhs2_1247_bus_6_9.1.2.3 bus2=sb6_p3uhs2_1247_bus_6_12.1.2.3 switch=y enabled=n phases=3 Linecode=BREAKER_13KV_3_3_3_3

New Line.sb6_p3uhs2_1247_174 Units=km Length=0.001 bus1=sb6_p3uhs2_1247_bus_6_4.1.2.3 bus2=sb6_p3uhs2_1247_bus_6_8.1.2.3 switch=y enabled=y phases=3 Linecode=DISCONNECT_SWITCH_13KV_3_3_3_3

New Line.sb6_p3uhs2_1247_167 Units=km Length=0.001 bus1=sb6_p3uhs2_1247_bus_6_3.1.2.3 bus2=sb6_p3uhs2_1247_bus_6_7.1.2.3 switch=y enabled=y phases=3 Linecode=DISCONNECT_SWITCH_13KV_3_3_3_3

New Line.sb6_p3uhs2_1247_373 Units=km Length=0.001 bus1=sb6_p3uhs2_1247_node_6_19.1.2.3 bus2=sb6_p3uhs2_1247_bus_6_3.1.2.3 switch=y enabled=y phases=3 Linecode=BREAKER_13KV_3_3_3_3

New Line.sb6_p3uhs2_1247_176 Units=km Length=0.001 bus1=sb6_p3uhs2_1247_bus_6_6.1.2.3 bus2=sb6_p3uhs2_1247_bus_6_18.1.2.3 switch=y enabled=y phases=3 Linecode=BREAKER_13KV_3_3_3_3

New Line.sb6_p3uhs2_1247_180 Units=km Length=0.001 bus1=sb6_p3uhs2_1247_bus_6_8.1.2.3 bus2=sb6_p3uhs2_1247_bus_6_13.1.2.3 switch=y enabled=y phases=3 Linecode=BREAKER_13KV_3_3_3_3

New Line.sb6_p3uhs2_1247_178 Units=km Length=0.001 bus1=sb6_p3uhs2_1247_bus_6_6.1.2.3 bus2=sb6_p3uhs2_1247_bus_6_20.1.2.3 switch=y enabled=y phases=3 Linecode=BREAKER_13KV_3_3_3_3

New Line.sb6_p3uhs2_1247_182 Units=km Length=0.001 bus1=sb6_p3uhs2_1247_bus_6_11.1.2.3 bus2=sb6_p3uhs2_1247_bus_6_14.1.2.3 switch=y enabled=n phases=3 Linecode=BREAKER_13KV_3_3_3_3

