New Transformer.sb6_p3uhs2_1247_trans_162 phases=3 windings=2 wdg=1 conn=delta Kv=69.0 kva=30000.0 %R=0.39801487608399566 bus=sb6_p3uhs2_1247_node_6_17 wdg=2 conn=wye Kv=12.47 kva=30000.0 %R=0.39801487608399566 bus=sb6_p3uhs2_1247_node_6_19 XHL=7.960297521679914

New Transformer.sb6_p3uhs2_1247_trans_163 phases=3 windings=2 wdg=1 conn=delta Kv=69.0 kva=30000.0 %R=0.39801487608399566 bus=sb6_p3uhs2_1247_node_6_18 wdg=2 conn=wye Kv=12.47 kva=30000.0 %R=0.39801487608399566 bus=sb6_p3uhs2_1247_node_6_20 XHL=7.960297521679914

