New Line.l(r:p4uhs12_69-p4uts0_69)p4ud3 Units=km Length=0.5657 bus1=p4uhs12_69-p4uts0_69xx.1.2.3 bus2=p4uhs12_69-p4uts0_69x.1.2.3 switch=n enabled=y phases=3 Linecode=3P_OH_AL_ACSR_477kcmil_Hawk_69_0_3_3_3_3

New Line.l(r:p4uhs12_69-p4uts0_69)p4ud3p4ud3 Units=km Length=0.5657 bus1=p4uhs12_69-p4uts0_69x_px_p.1.2.3 bus2=p4uhs12_69-p4uts0_69x_p.1.2.3 switch=n enabled=y phases=3 Linecode=3P_OH_AL_ACSR_477kcmil_Hawk_69_0_3_3_3_3

New Line.l(r:p4uhs18_69-p4uts1_69)p4ud3p4ud23 Units=km Length=7.7534 bus1=p4uhs18_69-p4uts1_69xx.1.2.3 bus2=p4uhs18_69-p4uts1_69x.1.2.3 switch=n enabled=y phases=3 Linecode=3P_OH_AL_ACSR_477kcmil_Hawk_69_0_3_3_3_3

New Line.l(r:p4uhs18_69-p4uts1_69)p4ud3p4ud23p4ud13 Units=km Length=7.7534 bus1=p4uhs18_69-p4uts1_69x_px_p.1.2.3 bus2=p4uhs18_69-p4uts1_69x_p.1.2.3 switch=n enabled=y phases=3 Linecode=3P_OH_AL_ACSR_477kcmil_Hawk_69_0_3_3_3_3

New Line.l(r:p4uhs18_69-p4uts1_69)p4ud3p4ud23p4ud23 Units=km Length=7.7534 bus1=p4uhs18_69-p4uts1_69x_px_p.1.2.3 bus2=p4uhs18_69-p4uts1_69x_p.1.2.3 switch=n enabled=y phases=3 Linecode=3P_OH_AL_ACSR_477kcmil_Hawk_69_0_3_3_3_3

New Line.l(r:p4uhs18_69-p4uts1_69)p4ud3p4ud23p4ud33 Units=km Length=7.7534 bus1=p4uhs18_69-p4uts1_69x_px_p.1.2.3 bus2=p4uhs18_69-p4uts1_69x_p.1.2.3 switch=n enabled=y phases=3 Linecode=3P_OH_AL_ACSR_477kcmil_Hawk_69_0_3_3_3_3

New Line.l(r:p4uhs3_69-p4uhs6_69)_s0 Units=km Length=2.9361900000000003 bus1=p4uhs3_69-p4uhs6_69xxx.1.2.3 bus2=p4uhs3_69-p4uhs6_69xx.1.2.3 switch=n enabled=y phases=3 Linecode=3P_OH_AL_ACSR_477kcmil_Hawk_69_0_3_3_3_3

New Line.l(r:p4uhs3_69-p4uhs6_69)_s1 Units=km Length=6.51523 bus1=p4uhs3_69-p4uhs6_69xx.1.2.3 bus2=p4uhs3_69-p4uhs6_69x.1.2.3 switch=n enabled=y phases=3 Linecode=3P_OH_AL_ACSR_477kcmil_Hawk_69_0_3_3_3_3

New Line.l(r:p4uhs17_69-p4uhs1_69) Units=km Length=9.40351 bus1=p4uhs17_69-p4uhs1_69x.1.2.3 bus2=p4uhs17_69-p4uhs1_69xx.1.2.3 switch=n enabled=y phases=3 Linecode=3P_OH_AL_ACSR_477kcmil_Hawk_69_0_3_3_3_3

New Line.l(r:p4uhs15_69-p4uhs18_69) Units=km Length=9.37305 bus1=p4uhs15_69-p4uhs18_69x.1.2.3 bus2=p4uhs15_69-p4uhs18_69xx.1.2.3 switch=n enabled=y phases=3 Linecode=3P_OH_AL_ACSR_477kcmil_Hawk_69_0_3_3_3_3

New Line.l(r:p4uhs19_69-p4uts2_69)_s0 Units=km Length=2.41057 bus1=p4uhs19_69-p4uts2_69xxx.1.2.3 bus2=p4uhs19_69-p4uts2_69xx.1.2.3 switch=n enabled=y phases=3 Linecode=3P_OH_AL_ACSR_477kcmil_Hawk_69_0_3_3_3_3

New Line.l(r:p4uhs19_69-p4uts2_69)_s1 Units=km Length=6.45698 bus1=p4uhs19_69-p4uts2_69xx.1.2.3 bus2=p4uhs19_69-p4uts2_69x.1.2.3 switch=n enabled=y phases=3 Linecode=3P_OH_AL_ACSR_477kcmil_Hawk_69_0_3_3_3_3

New Line.l(r:p4uhs19_69-p4uhs9_69) Units=km Length=7.95704 bus1=p4uhs19_69-p4uhs9_69xx.1.2.3 bus2=p4uhs19_69-p4uhs9_69x.1.2.3 switch=n enabled=y phases=3 Linecode=3P_OH_AL_ACSR_477kcmil_Hawk_69_0_3_3_3_3

New Line.l(r:p4uhs8_69-p4uhs9_69) Units=km Length=7.53267 bus1=p4uhs8_69-p4uhs9_69x.1.2.3 bus2=p4uhs8_69-p4uhs9_69xx.1.2.3 switch=n enabled=y phases=3 Linecode=3P_UG_AL_1000mcm_69_69_0_3_3_3_3

New Line.l(r:p4uhs20_69-p4uhs2_69) Units=km Length=6.72459 bus1=p4uhs20_69-p4uhs2_69xx.1.2.3 bus2=p4uhs20_69-p4uhs2_69x.1.2.3 switch=n enabled=y phases=3 Linecode=3P_OH_AL_ACSR_477kcmil_Hawk_69_0_3_3_3_3

New Line.l(r:p4uhs15_69-p4uhs16_69)_s0 Units=km Length=3.18409 bus1=p4uhs15_69-p4uhs16_69x.1.2.3 bus2=p4uhs15_69-p4uhs16_69xx.1.2.3 switch=n enabled=y phases=3 Linecode=3P_OH_AL_ACSR_477kcmil_Hawk_69_0_3_3_3_3

New Line.l(r:p4uhs15_69-p4uhs16_69)_s1 Units=km Length=3.52832 bus1=p4uhs15_69-p4uhs16_69xx.1.2.3 bus2=p4uhs15_69-p4uhs16_69xxx.1.2.3 switch=n enabled=y phases=3 Linecode=3P_OH_AL_ACSR_477kcmil_Hawk_69_0_3_3_3_3

New Line.l(r:p4uhs10_69-p4uhs4_69)_s0 Units=km Length=0.0722822 bus1=p4uhs10_69-p4uhs4_69x.1.2.3 bus2=p4uhs10_69-p4uhs4_69xx.1.2.3 switch=n enabled=y phases=3 Linecode=3P_OH_AL_ACSR_477kcmil_Hawk_69_0_3_3_3_3

New Line.l(r:p4uhs10_69-p4uhs4_69)_s1 Units=km Length=5.90116 bus1=p4uhs10_69-p4uhs4_69xx.1.2.3 bus2=p4uhs10_69-p4uhs4_69xxx.1.2.3 switch=n enabled=y phases=3 Linecode=3P_OH_AL_ACSR_477kcmil_Hawk_69_0_3_3_3_3

New Line.l(r:p4uhs12_69-p4uhs2_69)_s0 Units=km Length=1.06008 bus1=p4uhs12_69-p4uhs2_69x.1.2.3 bus2=p4uhs12_69-p4uhs2_69xx.1.2.3 switch=n enabled=y phases=3 Linecode=3P_OH_AL_ACSR_477kcmil_Hawk_69_0_3_3_3_3

New Line.l(r:p4uhs12_69-p4uhs2_69)_s1 Units=km Length=4.23958 bus1=p4uhs12_69-p4uhs2_69xx.1.2.3 bus2=p4uhs12_69-p4uhs2_69xxx.1.2.3 switch=n enabled=y phases=3 Linecode=3P_OH_AL_ACSR_477kcmil_Hawk_69_0_3_3_3_3

New Line.l(r:p4uhs12_69-p4uhs2_69)_s2 Units=km Length=0.5252470000000001 bus1=p4uhs12_69-p4uhs2_69xxx.1.2.3 bus2=p4uhs12_69-p4uhs2_69xxxx.1.2.3 switch=n enabled=y phases=3 Linecode=3P_OH_AL_ACSR_477kcmil_Hawk_69_0_3_3_3_3

New Line.l(r:p4uhs2_69-p4uhs7_69)_s0 Units=km Length=0.301597 bus1=p4uhs2_69-p4uhs7_69x.1.2.3 bus2=p4uhs2_69-p4uhs7_69xx.1.2.3 switch=n enabled=y phases=3 Linecode=3P_OH_AL_ACSR_477kcmil_Hawk_69_0_3_3_3_3

New Line.l(r:p4uhs2_69-p4uhs7_69)_s1 Units=km Length=4.919420000000001 bus1=p4uhs2_69-p4uhs7_69xx.1.2.3 bus2=p4uhs2_69-p4uhs7_69xxx.1.2.3 switch=n enabled=y phases=3 Linecode=3P_OH_AL_ACSR_477kcmil_Hawk_69_0_3_3_3_3

New Line.l(r:p4uhs5_69-p4uts3_69)_s0 Units=km Length=0.520695 bus1=p4uhs5_69-p4uts3_69xxxx.1.2.3 bus2=p4uhs5_69-p4uts3_69xxx.1.2.3 switch=n enabled=y phases=3 Linecode=3P_OH_AL_ACSR_477kcmil_Hawk_69_0_3_3_3_3

New Line.l(r:p4uhs5_69-p4uts3_69)_s1 Units=km Length=0.217312 bus1=p4uhs5_69-p4uts3_69xxx.1.2.3 bus2=p4uhs5_69-p4uts3_69xx.1.2.3 switch=n enabled=y phases=3 Linecode=3P_OH_AL_ACSR_477kcmil_Hawk_69_0_3_3_3_3

New Line.l(r:p4uhs5_69-p4uts3_69)_s2 Units=km Length=4.19679 bus1=p4uhs5_69-p4uts3_69xx.1.2.3 bus2=p4uhs5_69-p4uts3_69x.1.2.3 switch=n enabled=y phases=3 Linecode=3P_OH_AL_ACSR_477kcmil_Hawk_69_0_3_3_3_3

New Line.l(r:p4uhs11_69-p4uhs4_69)_s0 Units=km Length=1.93178 bus1=p4uhs11_69-p4uhs4_69x.1.2.3 bus2=p4uhs11_69-p4uhs4_69xx.1.2.3 switch=n enabled=y phases=3 Linecode=3P_OH_AL_ACSR_477kcmil_Hawk_69_0_3_3_3_3

New Line.l(r:p4uhs11_69-p4uhs4_69)_s1 Units=km Length=2.6676000000000006 bus1=p4uhs11_69-p4uhs4_69xx.1.2.3 bus2=p4uhs11_69-p4uhs4_69xxx.1.2.3 switch=n enabled=y phases=3 Linecode=3P_OH_AL_ACSR_477kcmil_Hawk_69_0_3_3_3_3

New Line.l(r:p4uhs11_69-p4uhs4_69)_s2 Units=km Length=0.05572440000000001 bus1=p4uhs11_69-p4uhs4_69xxx.1.2.3 bus2=p4uhs11_69-p4uhs4_69xxxx.1.2.3 switch=n enabled=y phases=3 Linecode=3P_OH_AL_ACSR_477kcmil_Hawk_69_0_3_3_3_3

New Line.l(r:p4uhs10_69-p4uhs11_69)_s0 Units=km Length=1.44518 bus1=p4uhs10_69-p4uhs11_69x.1.2.3 bus2=p4uhs10_69-p4uhs11_69xx.1.2.3 switch=n enabled=y phases=3 Linecode=3P_OH_AL_ACSR_477kcmil_Hawk_69_0_3_3_3_3

New Line.l(r:p4uhs10_69-p4uhs11_69)_s1 Units=km Length=3.16161 bus1=p4uhs10_69-p4uhs11_69xx.1.2.3 bus2=p4uhs10_69-p4uhs11_69xxx.1.2.3 switch=n enabled=y phases=3 Linecode=3P_OH_AL_ACSR_477kcmil_Hawk_69_0_3_3_3_3

New Line.l(r:p4uhs6_69-p4uhs7_69)_s0 Units=km Length=0.597845 bus1=p4uhs6_69-p4uhs7_69x.1.2.3 bus2=p4uhs6_69-p4uhs7_69xx.1.2.3 switch=n enabled=y phases=3 Linecode=3P_OH_AL_ACSR_477kcmil_Hawk_69_0_3_3_3_3

New Line.l(r:p4uhs6_69-p4uhs7_69)_s1 Units=km Length=3.96979 bus1=p4uhs6_69-p4uhs7_69xx.1.2.3 bus2=p4uhs6_69-p4uhs7_69xxx.1.2.3 switch=n enabled=y phases=3 Linecode=3P_OH_AL_ACSR_477kcmil_Hawk_69_0_3_3_3_3

New Line.l(r:p4uhs0_69-p4uhs13_69) Units=km Length=4.36388 bus1=p4uhs0_69-p4uhs13_69xx.1.2.3 bus2=p4uhs0_69-p4uhs13_69x.1.2.3 switch=n enabled=y phases=3 Linecode=3P_OH_AL_ACSR_477kcmil_Hawk_69_0_3_3_3_3

New Line.l(r:p4uhs14_69-p4uhs2_69) Units=km Length=4.33708 bus1=p4uhs14_69-p4uhs2_69xx.1.2.3 bus2=p4uhs14_69-p4uhs2_69x.1.2.3 switch=n enabled=y phases=3 Linecode=3P_OH_AL_ACSR_477kcmil_Hawk_69_0_3_3_3_3

New Line.l(r:p4uhs6_69-p4uts2_69)_s0 Units=km Length=0.746205 bus1=p4uhs6_69-p4uts2_69xxx.1.2.3 bus2=p4uhs6_69-p4uts2_69xx.1.2.3 switch=n enabled=y phases=3 Linecode=3P_OH_AL_ACSR_477kcmil_Hawk_69_0_3_3_3_3

New Line.l(r:p4uhs6_69-p4uts2_69)_s1 Units=km Length=3.38434 bus1=p4uhs6_69-p4uts2_69xx.1.2.3 bus2=p4uhs6_69-p4uts2_69x.1.2.3 switch=n enabled=y phases=3 Linecode=3P_OH_AL_ACSR_477kcmil_Hawk_69_0_3_3_3_3

New Line.l(r:p4uhs17_69-p4uhs18_69) Units=km Length=4.10512 bus1=p4uhs17_69-p4uhs18_69xx.1.2.3 bus2=p4uhs17_69-p4uhs18_69x.1.2.3 switch=n enabled=y phases=3 Linecode=3P_OH_AL_ACSR_477kcmil_Hawk_69_0_3_3_3_3

New Line.l(r:p4uhs0_69-p4uhs15_69) Units=km Length=3.85282 bus1=p4uhs0_69-p4uhs15_69x.1.2.3 bus2=p4uhs0_69-p4uhs15_69xx.1.2.3 switch=n enabled=y phases=3 Linecode=3P_OH_AL_ACSR_477kcmil_Hawk_69_0_3_3_3_3

New Line.l(r:p4uhs10_69-p4uts0_69)_s0 Units=km Length=0.907218 bus1=p4uhs10_69-p4uts0_69xxx.1.2.3 bus2=p4uhs10_69-p4uts0_69xx.1.2.3 switch=n enabled=y phases=3 Linecode=3P_OH_AL_ACSR_477kcmil_Hawk_69_0_3_3_3_3

New Line.l(r:p4uhs10_69-p4uts0_69)_s1 Units=km Length=2.5063900000000006 bus1=p4uhs10_69-p4uts0_69xx.1.2.3 bus2=p4uhs10_69-p4uts0_69x.1.2.3 switch=n enabled=y phases=3 Linecode=3P_OH_AL_ACSR_477kcmil_Hawk_69_0_3_3_3_3

New Line.l(r:p4uhs7_69-p4uts3_69)_s0 Units=km Length=0.256698 bus1=p4uhs7_69-p4uts3_69xxx.1.2.3 bus2=p4uhs7_69-p4uts3_69xx.1.2.3 switch=n enabled=y phases=3 Linecode=3P_OH_AL_ACSR_477kcmil_Hawk_69_0_3_3_3_3

New Line.l(r:p4uhs7_69-p4uts3_69)_s1 Units=km Length=3.00183 bus1=p4uhs7_69-p4uts3_69xx.1.2.3 bus2=p4uhs7_69-p4uts3_69x.1.2.3 switch=n enabled=y phases=3 Linecode=3P_OH_AL_ACSR_477kcmil_Hawk_69_0_3_3_3_3

New Line.l(r:p4uhs12_69-p4uhs13_69)_s0 Units=km Length=0.476464 bus1=p4uhs12_69-p4uhs13_69x.1.2.3 bus2=p4uhs12_69-p4uhs13_69xx.1.2.3 switch=n enabled=y phases=3 Linecode=3P_OH_AL_ACSR_477kcmil_Hawk_69_0_3_3_3_3

New Line.l(r:p4uhs12_69-p4uhs13_69)_s1 Units=km Length=0.72887 bus1=p4uhs12_69-p4uhs13_69xx.1.2.3 bus2=p4uhs12_69-p4uhs13_69xxx.1.2.3 switch=n enabled=y phases=3 Linecode=3P_OH_AL_ACSR_477kcmil_Hawk_69_0_3_3_3_3

New Line.l(r:p4uhs12_69-p4uhs13_69)_s2 Units=km Length=1.40313 bus1=p4uhs12_69-p4uhs13_69xxx.1.2.3 bus2=p4uhs12_69-p4uhs13_69xxxx.1.2.3 switch=n enabled=y phases=3 Linecode=3P_OH_AL_ACSR_477kcmil_Hawk_69_0_3_3_3_3

New Line.l(r:p4uhs8_69-p4uts2_69)_s0 Units=km Length=0.908244 bus1=p4uhs8_69-p4uts2_69xxx.1.2.3 bus2=p4uhs8_69-p4uts2_69xx.1.2.3 switch=n enabled=y phases=3 Linecode=3P_UG_AL_1000mcm_69_69_0_3_3_3_3

New Line.l(r:p4uhs8_69-p4uts2_69)_s1 Units=km Length=1.61208 bus1=p4uhs8_69-p4uts2_69xx.1.2.3 bus2=p4uhs8_69-p4uts2_69x.1.2.3 switch=n enabled=y phases=3 Linecode=3P_OH_AL_ACSR_477kcmil_Hawk_69_0_3_3_3_3

New Line.breaker(r:p4uts0_69-st_mat)p4u_79400 Units=km Length=0.001 bus1=st_mat.1.2.3 bus2=p4uts0_69-st_matxx.1.2.3 switch=y enabled=y phases=3 Linecode=breaker_3_3_3_3

New Line.breaker(r:p4uts0_69-st_mat)p4u_79401 Units=km Length=0.001 bus1=p4uts0_69-st_matx.1.2.3 bus2=p4uts0_69.1.2.3 switch=y enabled=y phases=3 Linecode=breaker_3_3_3_3

New Line.breaker(r:p4uts1_69-st_mat)p4u_79402 Units=km Length=0.001 bus1=st_mat.1.2.3 bus2=p4uts1_69-st_matxx.1.2.3 switch=y enabled=y phases=3 Linecode=breaker_3_3_3_3

New Line.breaker(r:p4uts1_69-st_mat)p4u_79403 Units=km Length=0.001 bus1=p4uts1_69-st_matx.1.2.3 bus2=p4uts1_69.1.2.3 switch=y enabled=y phases=3 Linecode=breaker_3_3_3_3

New Line.breaker(r:p4uts2_69-st_mat)p4u_79404 Units=km Length=0.001 bus1=st_mat.1.2.3 bus2=p4uts2_69-st_matxx.1.2.3 switch=y enabled=y phases=3 Linecode=breaker_3_3_3_3

New Line.breaker(r:p4uts2_69-st_mat)p4u_79405 Units=km Length=0.001 bus1=p4uts2_69-st_matx.1.2.3 bus2=p4uts2_69.1.2.3 switch=y enabled=y phases=3 Linecode=breaker_3_3_3_3

New Line.breaker(r:p4uts3_69-st_mat)p4u_79406 Units=km Length=0.001 bus1=st_mat.1.2.3 bus2=p4uts3_69-st_matxx.1.2.3 switch=y enabled=y phases=3 Linecode=breaker_3_3_3_3

New Line.breaker(r:p4uts3_69-st_mat)p4u_79407 Units=km Length=0.001 bus1=p4uts3_69-st_matx.1.2.3 bus2=p4uts3_69.1.2.3 switch=y enabled=y phases=3 Linecode=breaker_3_3_3_3

New Line.breaker(r:p4uhs12_69-p4uts0_69)p4u_79420p4ud3 Units=km Length=0.001 bus1=p4uts0_69.1.2.3 bus2=p4uhs12_69-p4uts0_69xx.1.2.3 switch=y enabled=y phases=3 Linecode=breaker_3_3_3_3

New Line.breaker(r:p4uhs12_69-p4uts0_69)p4u_79421p4ud3 Units=km Length=0.001 bus1=p4uhs12_69-p4uts0_69x.1.2.3 bus2=p4uhs12_69.1.2.3 switch=y enabled=y phases=3 Linecode=breaker_3_3_3_3

New Line.breaker(r:p4uhs12_69-p4uts0_69)p4u_79420p4ud3p4ud3 Units=km Length=0.001 bus1=p4uts0_69.1.2.3 bus2=p4uhs12_69-p4uts0_69x_px_p.1.2.3 switch=y enabled=y phases=3 Linecode=breaker_3_3_3_3

New Line.breaker(r:p4uhs12_69-p4uts0_69)p4u_79421p4ud3p4ud3 Units=km Length=0.001 bus1=p4uhs12_69-p4uts0_69x_p.1.2.3 bus2=p4uhs12_69.1.2.3 switch=y enabled=y phases=3 Linecode=breaker_3_3_3_3

New Line.breaker(r:p4uhs18_69-p4uts1_69)p4u_79414p4ud3p4ud23 Units=km Length=0.001 bus1=p4uts1_69.1.2.3 bus2=p4uhs18_69-p4uts1_69xx.1.2.3 switch=y enabled=y phases=3 Linecode=breaker_3_3_3_3

New Line.breaker(r:p4uhs18_69-p4uts1_69)p4u_79415p4ud3p4ud23 Units=km Length=0.001 bus1=p4uhs18_69-p4uts1_69x.1.2.3 bus2=p4uhs18_69.1.2.3 switch=y enabled=y phases=3 Linecode=breaker_3_3_3_3

New Line.breaker(r:p4uhs18_69-p4uts1_69)p4u_79414p4ud3p4ud23p4ud13 Units=km Length=0.001 bus1=p4uts1_69.1.2.3 bus2=p4uhs18_69-p4uts1_69x_px_p.1.2.3 switch=y enabled=y phases=3 Linecode=breaker_3_3_3_3

New Line.breaker(r:p4uhs18_69-p4uts1_69)p4u_79415p4ud3p4ud23p4ud13 Units=km Length=0.001 bus1=p4uhs18_69-p4uts1_69x_p.1.2.3 bus2=p4uhs18_69.1.2.3 switch=y enabled=y phases=3 Linecode=breaker_3_4_3_3_3

New Line.breaker(r:p4uhs18_69-p4uts1_69)p4u_79414p4ud3p4ud23p4ud23 Units=km Length=0.001 bus1=p4uts1_69.1.2.3 bus2=p4uhs18_69-p4uts1_69x_px_p.1.2.3 switch=y enabled=y phases=3 Linecode=breaker_3_3_3_3

New Line.breaker(r:p4uhs18_69-p4uts1_69)p4u_79415p4ud3p4ud23p4ud23 Units=km Length=0.001 bus1=p4uhs18_69-p4uts1_69x_p.1.2.3 bus2=p4uhs18_69.1.2.3 switch=y enabled=y phases=3 Linecode=breaker_3_4_3_2_3_3

New Line.breaker(r:p4uhs18_69-p4uts1_69)p4u_79414p4ud3p4ud23p4ud33 Units=km Length=0.001 bus1=p4uts1_69.1.2.3 bus2=p4uhs18_69-p4uts1_69x_px_p.1.2.3 switch=y enabled=y phases=3 Linecode=breaker_3_3_3_3

New Line.breaker(r:p4uhs18_69-p4uts1_69)p4u_79415p4ud3p4ud23p4ud33 Units=km Length=0.001 bus1=p4uhs18_69-p4uts1_69x_p.1.2.3 bus2=p4uhs18_69.1.2.3 switch=y enabled=y phases=3 Linecode=breaker_3_4_3_2_3_3

New Line.breaker(r:p4uhs3_69-p4uhs6_69)p4u_79468 Units=km Length=0.001 bus1=p4uhs6_69.1.2.3 bus2=p4uhs3_69-p4uhs6_69xxx.1.2.3 switch=y enabled=y phases=3 Linecode=breaker_3_4_3_2_3_2_3

New Line.breaker(r:p4uhs3_69-p4uhs6_69)p4u_79469 Units=km Length=0.001 bus1=p4uhs3_69-p4uhs6_69x.1.2.3 bus2=p4uhs3_69.1.2.3 switch=y enabled=y phases=3 Linecode=breaker_3_3_3_3

New Line.breaker(r:p4uhs17_69-p4uhs1_69)p4u_79470 Units=km Length=0.001 bus1=p4uhs17_69.1.2.3 bus2=p4uhs17_69-p4uhs1_69x.1.2.3 switch=y enabled=y phases=3 Linecode=breaker_3_4_3_2_3_2_3_2

New Line.breaker(r:p4uhs17_69-p4uhs1_69)p4u_79471 Units=km Length=0.001 bus1=p4uhs17_69-p4uhs1_69xx.1.2.3 bus2=p4uhs1_69.1.2.3 switch=y enabled=y phases=3 Linecode=breaker_3_4_3_2_3_2_3_2

New Line.breaker(r:p4uhs15_69-p4uhs18_69)p4u_79472 Units=km Length=0.001 bus1=p4uhs15_69.1.2.3 bus2=p4uhs15_69-p4uhs18_69x.1.2.3 switch=y enabled=y phases=3 Linecode=breaker_3_3_3_3

New Line.breaker(r:p4uhs15_69-p4uhs18_69)p4u_79473 Units=km Length=0.001 bus1=p4uhs15_69-p4uhs18_69xx.1.2.3 bus2=p4uhs18_69.1.2.3 switch=y enabled=y phases=3 Linecode=breaker_3_4_3_2_3_3

New Line.breaker(r:p4uhs19_69-p4uts2_69)p4u_79474 Units=km Length=0.001 bus1=p4uts2_69.1.2.3 bus2=p4uhs19_69-p4uts2_69xxx.1.2.3 switch=y enabled=y phases=3 Linecode=breaker_3_3_3_3

New Line.breaker(r:p4uhs19_69-p4uts2_69)p4u_79475 Units=km Length=0.001 bus1=p4uhs19_69-p4uts2_69x.1.2.3 bus2=p4uhs19_69.1.2.3 switch=y enabled=y phases=3 Linecode=breaker_3_3_3_3

New Line.breaker(r:p4uhs19_69-p4uhs9_69)p4u_79476 Units=km Length=0.001 bus1=p4uhs9_69.1.2.3 bus2=p4uhs19_69-p4uhs9_69xx.1.2.3 switch=y enabled=y phases=3 Linecode=breaker_3_3_3_3

New Line.breaker(r:p4uhs19_69-p4uhs9_69)p4u_79477 Units=km Length=0.001 bus1=p4uhs19_69-p4uhs9_69x.1.2.3 bus2=p4uhs19_69.1.2.3 switch=y enabled=y phases=3 Linecode=breaker_3_4_3_2_3_3

New Line.breaker(r:p4uhs8_69-p4uhs9_69)p4u_79478 Units=km Length=0.001 bus1=p4uhs8_69.1.2.3 bus2=p4uhs8_69-p4uhs9_69x.1.2.3 switch=y enabled=y phases=3 Linecode=breaker_3_4_3_2_3_2_3_2

New Line.breaker(r:p4uhs8_69-p4uhs9_69)p4u_79479 Units=km Length=0.001 bus1=p4uhs8_69-p4uhs9_69xx.1.2.3 bus2=p4uhs9_69.1.2.3 switch=y enabled=y phases=3 Linecode=breaker_3_3_3_3

New Line.breaker(r:p4uhs20_69-p4uhs2_69)p4u_79480 Units=km Length=0.001 bus1=p4uhs2_69.1.2.3 bus2=p4uhs20_69-p4uhs2_69xx.1.2.3 switch=y enabled=y phases=3 Linecode=breaker_3_4_3_3_3

New Line.breaker(r:p4uhs20_69-p4uhs2_69)p4u_79481 Units=km Length=0.001 bus1=p4uhs20_69-p4uhs2_69x.1.2.3 bus2=p4uhs20_69.1.2.3 switch=y enabled=y phases=3 Linecode=breaker_3_4_3_2_3_2_3

New Line.breaker(r:p4uhs15_69-p4uhs16_69)p4u_79482 Units=km Length=0.001 bus1=p4uhs15_69.1.2.3 bus2=p4uhs15_69-p4uhs16_69x.1.2.3 switch=y enabled=y phases=3 Linecode=breaker_3_3_3_3

New Line.breaker(r:p4uhs15_69-p4uhs16_69)p4u_79483 Units=km Length=0.001 bus1=p4uhs15_69-p4uhs16_69xxx.1.2.3 bus2=p4uhs16_69.1.2.3 switch=y enabled=y phases=3 Linecode=breaker_3_3_3_3

New Line.breaker(r:p4uhs10_69-p4uhs4_69)p4u_79484 Units=km Length=0.001 bus1=p4uhs10_69.1.2.3 bus2=p4uhs10_69-p4uhs4_69x.1.2.3 switch=y enabled=y phases=3 Linecode=breaker_3_4_3_2_3_3

New Line.breaker(r:p4uhs10_69-p4uhs4_69)p4u_79485 Units=km Length=0.001 bus1=p4uhs10_69-p4uhs4_69xxx.1.2.3 bus2=p4uhs4_69.1.2.3 switch=y enabled=y phases=3 Linecode=breaker_3_3_3_3

New Line.breaker(r:p4uhs12_69-p4uhs2_69)p4u_79486 Units=km Length=0.001 bus1=p4uhs12_69.1.2.3 bus2=p4uhs12_69-p4uhs2_69x.1.2.3 switch=y enabled=y phases=3 Linecode=breaker_3_3_3_3

New Line.breaker(r:p4uhs12_69-p4uhs2_69)p4u_79487 Units=km Length=0.001 bus1=p4uhs12_69-p4uhs2_69xxxx.1.2.3 bus2=p4uhs2_69.1.2.3 switch=y enabled=y phases=3 Linecode=breaker_3_3_3_3

New Line.breaker(r:p4uhs2_69-p4uhs7_69)p4u_79488 Units=km Length=0.001 bus1=p4uhs2_69.1.2.3 bus2=p4uhs2_69-p4uhs7_69x.1.2.3 switch=y enabled=y phases=3 Linecode=breaker_3_4_3_3_3

New Line.breaker(r:p4uhs2_69-p4uhs7_69)p4u_79489 Units=km Length=0.001 bus1=p4uhs2_69-p4uhs7_69xxx.1.2.3 bus2=p4uhs7_69.1.2.3 switch=y enabled=y phases=3 Linecode=breaker_3_3_3_3

New Line.breaker(r:p4uhs5_69-p4uts3_69)p4u_79490 Units=km Length=0.001 bus1=p4uts3_69.1.2.3 bus2=p4uhs5_69-p4uts3_69xxxx.1.2.3 switch=y enabled=y phases=3 Linecode=breaker_3_3_3_3

New Line.breaker(r:p4uhs5_69-p4uts3_69)p4u_79491 Units=km Length=0.001 bus1=p4uhs5_69-p4uts3_69x.1.2.3 bus2=p4uhs5_69.1.2.3 switch=y enabled=y phases=3 Linecode=breaker_3_3_3_3

New Line.breaker(r:p4uhs11_69-p4uhs4_69)p4u_79492 Units=km Length=0.001 bus1=p4uhs11_69.1.2.3 bus2=p4uhs11_69-p4uhs4_69x.1.2.3 switch=y enabled=y phases=3 Linecode=breaker_3_4_3_3_3

New Line.breaker(r:p4uhs11_69-p4uhs4_69)p4u_79493 Units=km Length=0.001 bus1=p4uhs11_69-p4uhs4_69xxxx.1.2.3 bus2=p4uhs4_69.1.2.3 switch=y enabled=y phases=3 Linecode=breaker_3_3_3_3

New Line.breaker(r:p4uhs10_69-p4uhs11_69)p4u_79494 Units=km Length=0.001 bus1=p4uhs10_69.1.2.3 bus2=p4uhs10_69-p4uhs11_69x.1.2.3 switch=y enabled=y phases=3 Linecode=breaker_3_4_3_2_3_3

New Line.breaker(r:p4uhs10_69-p4uhs11_69)p4u_79495 Units=km Length=0.001 bus1=p4uhs10_69-p4uhs11_69xxx.1.2.3 bus2=p4uhs11_69.1.2.3 switch=y enabled=y phases=3 Linecode=breaker_3_3_3_3

New Line.breaker(r:p4uhs6_69-p4uhs7_69)p4u_79496 Units=km Length=0.001 bus1=p4uhs6_69.1.2.3 bus2=p4uhs6_69-p4uhs7_69x.1.2.3 switch=y enabled=y phases=3 Linecode=breaker_3_4_3_2_3_2_3

New Line.breaker(r:p4uhs6_69-p4uhs7_69)p4u_79497 Units=km Length=0.001 bus1=p4uhs6_69-p4uhs7_69xxx.1.2.3 bus2=p4uhs7_69.1.2.3 switch=y enabled=y phases=3 Linecode=breaker_3_3_3_3

New Line.breaker(r:p4uhs0_69-p4uhs13_69)p4u_79498 Units=km Length=0.001 bus1=p4uhs13_69.1.2.3 bus2=p4uhs0_69-p4uhs13_69xx.1.2.3 switch=y enabled=y phases=3 Linecode=breaker_3_4_3_2_3_2_3_2

New Line.breaker(r:p4uhs0_69-p4uhs13_69)p4u_79499 Units=km Length=0.001 bus1=p4uhs0_69-p4uhs13_69x.1.2.3 bus2=p4uhs0_69.1.2.3 switch=y enabled=y phases=3 Linecode=breaker_3_4_3_2_3_3

New Line.breaker(r:p4uhs14_69-p4uhs2_69)p4u_79500 Units=km Length=0.001 bus1=p4uhs2_69.1.2.3 bus2=p4uhs14_69-p4uhs2_69xx.1.2.3 switch=y enabled=y phases=3 Linecode=breaker_3_4_3_3_3

New Line.breaker(r:p4uhs14_69-p4uhs2_69)p4u_79501 Units=km Length=0.001 bus1=p4uhs14_69-p4uhs2_69x.1.2.3 bus2=p4uhs14_69.1.2.3 switch=y enabled=y phases=3 Linecode=breaker_3_3_3_3

New Line.breaker(r:p4uhs6_69-p4uts2_69)p4u_79502 Units=km Length=0.001 bus1=p4uts2_69.1.2.3 bus2=p4uhs6_69-p4uts2_69xxx.1.2.3 switch=y enabled=y phases=3 Linecode=breaker_3_3_3_3

New Line.breaker(r:p4uhs6_69-p4uts2_69)p4u_79503 Units=km Length=0.001 bus1=p4uhs6_69-p4uts2_69x.1.2.3 bus2=p4uhs6_69.1.2.3 switch=y enabled=y phases=3 Linecode=breaker_3_3_3_3

New Line.breaker(r:p4uhs17_69-p4uhs18_69)p4u_79504 Units=km Length=0.001 bus1=p4uhs18_69.1.2.3 bus2=p4uhs17_69-p4uhs18_69xx.1.2.3 switch=y enabled=y phases=3 Linecode=breaker_3_4_3_2_3_3

New Line.breaker(r:p4uhs17_69-p4uhs18_69)p4u_79505 Units=km Length=0.001 bus1=p4uhs17_69-p4uhs18_69x.1.2.3 bus2=p4uhs17_69.1.2.3 switch=y enabled=y phases=3 Linecode=breaker_3_4_3_2_3_2_3_2

New Line.breaker(r:p4uhs0_69-p4uhs15_69)p4u_79506 Units=km Length=0.001 bus1=p4uhs0_69.1.2.3 bus2=p4uhs0_69-p4uhs15_69x.1.2.3 switch=y enabled=y phases=3 Linecode=breaker_3_3_3_3

New Line.breaker(r:p4uhs0_69-p4uhs15_69)p4u_79507 Units=km Length=0.001 bus1=p4uhs0_69-p4uhs15_69xx.1.2.3 bus2=p4uhs15_69.1.2.3 switch=y enabled=y phases=3 Linecode=breaker_3_3_3_3

New Line.breaker(r:p4uhs10_69-p4uts0_69)p4u_79508 Units=km Length=0.001 bus1=p4uts0_69.1.2.3 bus2=p4uhs10_69-p4uts0_69xxx.1.2.3 switch=y enabled=y phases=3 Linecode=breaker_3_3_3_3

New Line.breaker(r:p4uhs10_69-p4uts0_69)p4u_79509 Units=km Length=0.001 bus1=p4uhs10_69-p4uts0_69x.1.2.3 bus2=p4uhs10_69.1.2.3 switch=y enabled=y phases=3 Linecode=breaker_3_3_3_3

New Line.breaker(r:p4uhs7_69-p4uts3_69)p4u_79510 Units=km Length=0.001 bus1=p4uts3_69.1.2.3 bus2=p4uhs7_69-p4uts3_69xxx.1.2.3 switch=y enabled=y phases=3 Linecode=breaker_3_3_3_3

New Line.breaker(r:p4uhs7_69-p4uts3_69)p4u_79511 Units=km Length=0.001 bus1=p4uhs7_69-p4uts3_69x.1.2.3 bus2=p4uhs7_69.1.2.3 switch=y enabled=y phases=3 Linecode=breaker_3_3_3_3

New Line.breaker(r:p4uhs12_69-p4uhs13_69)p4u_79512 Units=km Length=0.001 bus1=p4uhs12_69.1.2.3 bus2=p4uhs12_69-p4uhs13_69x.1.2.3 switch=y enabled=y phases=3 Linecode=breaker_3_3_3_3

New Line.breaker(r:p4uhs12_69-p4uhs13_69)p4u_79513 Units=km Length=0.001 bus1=p4uhs12_69-p4uhs13_69xxxx.1.2.3 bus2=p4uhs13_69.1.2.3 switch=y enabled=y phases=3 Linecode=breaker_3_3_3_3

New Line.breaker(r:p4uhs8_69-p4uts2_69)p4u_79514 Units=km Length=0.001 bus1=p4uts2_69.1.2.3 bus2=p4uhs8_69-p4uts2_69xxx.1.2.3 switch=y enabled=y phases=3 Linecode=breaker_3_3_3_3

New Line.breaker(r:p4uhs8_69-p4uts2_69)p4u_79515 Units=km Length=0.001 bus1=p4uhs8_69-p4uts2_69x.1.2.3 bus2=p4uhs8_69.1.2.3 switch=y enabled=y phases=3 Linecode=breaker_3_3_3_3

