New Linecode.3P_OH_AL_ACSR_477kcmil_Hawk_69_0_3_3_3_3 units=km nphases=3 Faultrate=0.1 Rmatrix=(0.1731667 0.05066667 0.05066667 | 0.05066667 0.1731667 0.05066667 | 0.05066667 0.05066667 0.1731667 ) Xmatrix=(0.5780332999999999 0.1957333 0.1957333 | 0.1957333 0.5780332999999999 0.1957333 | 0.1957333 0.1957333 0.5780332999999999 ) Cmatrix=(8.040433 -3.535467 -3.535467 | -3.535467 8.040433 -3.535467 | -3.535467 -3.535467 8.040433 ) normamps=595.0

New Linecode.3P_UG_AL_1000mcm_69_69_0_3_3_3_3 units=km nphases=3 Faultrate=0.1 Rmatrix=(0.4732667 -0.1182333 -0.1182333 | -0.1182333 0.4732667 -0.1182333 | -0.1182333 -0.1182333 0.4732667 ) Xmatrix=(0.8477333 0.6126333 0.6126333 | 0.6126333 0.8477333 0.6126333 | 0.6126333 0.6126333 0.8477333 ) Cmatrix=(186.7257 -92.32633 -92.32633 | -92.32633 186.7257 -92.32633 | -92.32633 -92.32633 186.7257 ) normamps=610.0

New Linecode.breaker_3_3_3_3 units=km nphases=3 Faultrate=0.1 Rmatrix=(0.001 0.0 0.0 | 0.0 0.001 0.0 | 0.0 0.0 0.001 ) Xmatrix=(0.001 0.0 0.0 | 0.0 0.001 0.0 | 0.0 0.0 0.001 ) Cmatrix=(3.499563 -0.1093613 -0.1093613 | -0.1093613 3.499563 -0.1093613 | -0.1093613 -0.1093613 3.499563 ) normamps=595.0

New Linecode.breaker_3_4_3_3_3 units=km nphases=3 Faultrate=0.1 Rmatrix=(0.001 0.0 0.0 | 0.0 0.001 0.0 | 0.0 0.0 0.001 ) Xmatrix=(0.001 0.0 0.0 | 0.0 0.001 0.0 | 0.0 0.0 0.001 ) Cmatrix=(3.499563 -0.1093613 -0.1093613 | -0.1093613 3.499563 -0.1093613 | -0.1093613 -0.1093613 3.499563 ) normamps=115.0

New Linecode.breaker_3_4_3_2_3_3 units=km nphases=3 Faultrate=0.1 Rmatrix=(0.001 0.0 0.0 | 0.0 0.001 0.0 | 0.0 0.0 0.001 ) Xmatrix=(0.001 0.0 0.0 | 0.0 0.001 0.0 | 0.0 0.0 0.001 ) Cmatrix=(3.499563 -0.1093613 -0.1093613 | -0.1093613 3.499563 -0.1093613 | -0.1093613 -0.1093613 3.499563 ) normamps=325.0

New Linecode.breaker_3_4_3_2_3_2_3 units=km nphases=3 Faultrate=0.1 Rmatrix=(0.001 0.0 0.0 | 0.0 0.001 0.0 | 0.0 0.0 0.001 ) Xmatrix=(0.001 0.0 0.0 | 0.0 0.001 0.0 | 0.0 0.0 0.001 ) Cmatrix=(3.499563 -0.1093613 -0.1093613 | -0.1093613 3.499563 -0.1093613 | -0.1093613 -0.1093613 3.499563 ) normamps=205.0

New Linecode.breaker_3_4_3_2_3_2_3_2 units=km nphases=3 Faultrate=0.1 Rmatrix=(0.001 0.0 0.0 | 0.0 0.001 0.0 | 0.0 0.0 0.001 ) Xmatrix=(0.001 0.0 0.0 | 0.0 0.001 0.0 | 0.0 0.0 0.001 ) Cmatrix=(3.499563 -0.1093613 -0.1093613 | -0.1093613 3.499563 -0.1093613 | -0.1093613 -0.1093613 3.499563 ) normamps=960.0

