New Line.l(r:p1rhs3_69-p1rhs5_69)_s0 Units=km Length=7.41947 bus1=p1rhs3_69-p1rhs5_69xxx.1.2.3 bus2=p1rhs3_69-p1rhs5_69xx.1.2.3 switch=n enabled=y phases=3 Linecode=3P_OH_AL_ACSR_477kcmil_Hawk_69_0_3_3_3_3_3_3_3_3_3_3_3_3_3_3_3_3_3_3_3_3_3_3_3_3_3_3_3_3_3

New Line.l(r:p1rhs3_69-p1rhs5_69)_s1 Units=km Length=12.1725 bus1=p1rhs3_69-p1rhs5_69xx.1.2.3 bus2=p1rhs3_69-p1rhs5_69x.1.2.3 switch=n enabled=y phases=3 Linecode=3P_OH_AL_ACSR_477kcmil_Hawk_69_0_3_3_3_3_3_3_3_3_3_3_3_3_3_3_3_3_3_3_3_3_3_3_3_3_3_3_3_3_3

New Line.l(r:p1rhs2_69-p1rts3_69)_s0 Units=km Length=0.747989 bus1=p1rhs2_69-p1rts3_69x.1.2.3 bus2=p1rhs2_69-p1rts3_69xx.1.2.3 switch=n enabled=y phases=3 Linecode=3P_OH_AL_ACSR_477kcmil_Hawk_69_0_3_3_3_3_3_3_3_3_3_3_3_3_3_3_3_3_3_3_3_3_3_3_3_3_3_3_3_3_3

New Line.l(r:p1rhs2_69-p1rts3_69)_s1 Units=km Length=12.4107 bus1=p1rhs2_69-p1rts3_69xx.1.2.3 bus2=p1rhs2_69-p1rts3_69xxx.1.2.3 switch=n enabled=y phases=3 Linecode=3P_OH_AL_ACSR_477kcmil_Hawk_69_0_3_3_3_3_3_3_3_3_3_3_3_3_3_3_3_3_3_3_3_3_3_3_3_3_3_3_3_3_3

New Line.l(r:p1rhs7_69-p1rts0_69) Units=km Length=12.842 bus1=p1rhs7_69-p1rts0_69xx.1.2.3 bus2=p1rhs7_69-p1rts0_69x.1.2.3 switch=n enabled=y phases=3 Linecode=3P_OH_AL_ACSR_477kcmil_Hawk_69_0_3_3_3_3_3_3_3_3_3_3_3_3_3_3_3_3_3_3_3_3_3_3_3_3_3_3_3_3_3

New Line.l(r:p1rhs1_69-p1rts1_69)_s0 Units=km Length=2.8507700000000002 bus1=p1rhs1_69-p1rts1_69xxx.1.2.3 bus2=p1rhs1_69-p1rts1_69xx.1.2.3 switch=n enabled=y phases=3 Linecode=3P_OH_AL_ACSR_477kcmil_Hawk_69_0_3_3_3_3_3_3_3_3_3_3_3_3_3_3_3_3_3_3_3_3_3_3_3_3_3_3_3_3_3

New Line.l(r:p1rhs1_69-p1rts1_69)_s1 Units=km Length=8.62984 bus1=p1rhs1_69-p1rts1_69xx.1.2.3 bus2=p1rhs1_69-p1rts1_69x.1.2.3 switch=n enabled=y phases=3 Linecode=3P_OH_AL_ACSR_477kcmil_Hawk_69_0_3_3_3_3_3_3_3_3_3_3_3_3_3_3_3_3_3_3_3_3_3_3_3_3_3_3_3_3_3

New Line.l(r:p1rhs4_69-p1rts1_69) Units=km Length=10.7769 bus1=p1rhs4_69-p1rts1_69xx.1.2.3 bus2=p1rhs4_69-p1rts1_69x.1.2.3 switch=n enabled=y phases=3 Linecode=3P_OH_AL_ACSR_477kcmil_Hawk_69_0_3_3_3_3_3_3_3_3_3_3_3_3_3_3_3_3_3_3_3_3_3_3_3_3_3_3_3_3_3

New Line.l(r:p1rhs6_69-p1rts3_69)_s0 Units=km Length=6.94452 bus1=p1rhs6_69-p1rts3_69xxx.1.2.3 bus2=p1rhs6_69-p1rts3_69xx.1.2.3 switch=n enabled=y phases=3 Linecode=3P_OH_AL_ACSR_477kcmil_Hawk_69_0_3_3_3_3_3_3_3_3_3_3_3_3_3_3_3_3_3_3_3_3_3_3_3_3_3_3_3_3_3

New Line.l(r:p1rhs6_69-p1rts3_69)_s1 Units=km Length=2.91289 bus1=p1rhs6_69-p1rts3_69xx.1.2.3 bus2=p1rhs6_69-p1rts3_69x.1.2.3 switch=n enabled=y phases=3 Linecode=3P_OH_AL_ACSR_477kcmil_Hawk_69_0_3_3_3_3_3_3_3_3_3_3_3_3_3_3_3_3_3_3_3_3_3_3_3_3_3_3_3_3_3

New Line.l(r:p1rhs2_69-p1rts0_69) Units=km Length=8.55363 bus1=p1rhs2_69-p1rts0_69xx.1.2.3 bus2=p1rhs2_69-p1rts0_69x.1.2.3 switch=n enabled=y phases=3 Linecode=3P_OH_AL_ACSR_477kcmil_Hawk_69_0_3_3_3_3_3_3_3_3_3_3_3_3_3_3_3_3_3_3_3_3_3_3_3_3_3_3_3_3_3

New Line.l(r:p1rhs0_69-p1rts0_69) Units=km Length=7.961490000000001 bus1=p1rhs0_69-p1rts0_69xx.1.2.3 bus2=p1rhs0_69-p1rts0_69x.1.2.3 switch=n enabled=y phases=3 Linecode=3P_OH_AL_ACSR_477kcmil_Hawk_69_0_3_3_3_3_3_3_3_3_3_3_3_3_3_3_3_3_3_3_3_3_3_3_3_3_3_3_3_3_3

New Line.l(r:p1rhs5_69-p1rts3_69) Units=km Length=6.17362 bus1=p1rhs5_69-p1rts3_69xx.1.2.3 bus2=p1rhs5_69-p1rts3_69x.1.2.3 switch=n enabled=y phases=3 Linecode=3P_OH_AL_ACSR_477kcmil_Hawk_69_0_3_3_3_3_3_3_3_3_3_3_3_3_3_3_3_3_3_3_3_3_3_3_3_3_3_3_3_3_3

New Line.l(r:p1rhs3_69-p1rts2_69) Units=km Length=0.001 bus1=p1rhs3_69-p1rts2_69xx.1.2.3 bus2=p1rhs3_69-p1rts2_69x.1.2.3 switch=n enabled=y phases=3 Linecode=3P_OH_AL_ACSR_477kcmil_Hawk_69_0_3_3_3_3_3_3_3_3_3_3_3_3_3_3_3_3_3_3_3_3_3_3_3_3_3_3_3_3_3

New Line.breaker(r:p1rts0_69-st_mat)p1r_2789 Units=km Length=0.001 bus1=st_mat.1.2.3 bus2=p1rts0_69-st_matxx.1.2.3 switch=y enabled=y phases=3 Linecode=breaker_3_3_3_3_3_3_3_3_3_3_3_3_3_3_3_3_3_3_3_3_3_3_3_3_3_3_3_3_3

New Line.breaker(r:p1rts0_69-st_mat)p1r_2790 Units=km Length=0.001 bus1=p1rts0_69-st_matx.1.2.3 bus2=p1rts0_69.1.2.3 switch=y enabled=y phases=3 Linecode=breaker_3_2_3_3_3_3_3_3_3_3_3_3_3_3_3_3_3_3_3_3_3_3_3_3_3_3_3_3_3_3

New Line.breaker(r:p1rts1_69-st_mat)p1r_2791 Units=km Length=0.001 bus1=st_mat.1.2.3 bus2=p1rts1_69-st_matxx.1.2.3 switch=y enabled=y phases=3 Linecode=breaker_3_3_3_3_3_3_3_3_3_3_3_3_3_3_3_3_3_3_3_3_3_3_3_3_3_3_3_3_3

New Line.breaker(r:p1rts1_69-st_mat)p1r_2792 Units=km Length=0.001 bus1=p1rts1_69-st_matx.1.2.3 bus2=p1rts1_69.1.2.3 switch=y enabled=y phases=3 Linecode=breaker_3_2_3_1_3_3_3_3_3_3_3_3_3_3_3_3_3_3_3_3_3_3_3_3_3_3_3_3_3_3_3

New Line.breaker(r:p1rts2_69-st_mat)p1r_2793 Units=km Length=0.001 bus1=st_mat.1.2.3 bus2=p1rts2_69-st_matxx.1.2.3 switch=y enabled=y phases=3 Linecode=breaker_3_3_3_3_3_3_3_3_3_3_3_3_3_3_3_3_3_3_3_3_3_3_3_3_3_3_3_3_3

New Line.breaker(r:p1rts2_69-st_mat)p1r_2794 Units=km Length=0.001 bus1=p1rts2_69-st_matx.1.2.3 bus2=p1rts2_69.1.2.3 switch=y enabled=y phases=3 Linecode=breaker_3_2_3_1_3_3_3_3_3_3_3_3_3_3_3_3_3_3_3_3_3_3_3_3_3_3_3_3_3_3_3

New Line.breaker(r:p1rts3_69-st_mat)p1r_2795 Units=km Length=0.001 bus1=st_mat.1.2.3 bus2=p1rts3_69-st_matxx.1.2.3 switch=y enabled=y phases=3 Linecode=breaker_3_2_3_1_3_3_3_3_3_3_3_3_3_3_3_3_3_3_3_3_3_3_3_3_3_3_3_3_3_3_3

New Line.breaker(r:p1rts3_69-st_mat)p1r_2796 Units=km Length=0.001 bus1=p1rts3_69-st_matx.1.2.3 bus2=p1rts3_69.1.2.3 switch=y enabled=y phases=3 Linecode=breaker_3_2_3_1_3_3_3_3_3_3_3_3_3_3_3_3_3_3_3_3_3_3_3_3_3_3_3_3_3_3_3

New Line.breaker(r:p1rhs3_69-p1rhs5_69)p1r_2817 Units=km Length=0.001 bus1=p1rhs5_69.1.2.3 bus2=p1rhs3_69-p1rhs5_69xxx.1.2.3 switch=y enabled=y phases=3 Linecode=breaker_3_2_3_1_3_1_3_3_3_3_3_3_3_3_3_3_3_3_3_3_3_3_3_3_3_3_3_3_3_3_3_3

New Line.breaker(r:p1rhs3_69-p1rhs5_69)p1r_2818 Units=km Length=0.001 bus1=p1rhs3_69-p1rhs5_69x.1.2.3 bus2=p1rhs3_69.1.2.3 switch=y enabled=y phases=3 Linecode=breaker_3_2_3_1_3_3_3_3_3_3_3_3_3_3_3_3_3_3_3_3_3_3_3_3_3_3_3_3_3_3_3

New Line.breaker(r:p1rhs2_69-p1rts3_69)p1r_2819 Units=km Length=0.001 bus1=p1rhs2_69.1.2.3 bus2=p1rhs2_69-p1rts3_69x.1.2.3 switch=y enabled=y phases=3 Linecode=breaker_3_2_3_1_3_1_3_3_3_3_3_3_3_3_3_3_3_3_3_3_3_3_3_3_3_3_3_3_3_3_3_3

New Line.breaker(r:p1rhs2_69-p1rts3_69)p1r_2820 Units=km Length=0.001 bus1=p1rhs2_69-p1rts3_69xxx.1.2.3 bus2=p1rts3_69.1.2.3 switch=y enabled=y phases=3 Linecode=breaker_3_2_3_1_3_3_3_3_3_3_3_3_3_3_3_3_3_3_3_3_3_3_3_3_3_3_3_3_3_3_3

New Line.breaker(r:p1rhs7_69-p1rts0_69)p1r_2821 Units=km Length=0.001 bus1=p1rts0_69.1.2.3 bus2=p1rhs7_69-p1rts0_69xx.1.2.3 switch=y enabled=y phases=3 Linecode=breaker_3_2_3_1_3_3_3_3_3_3_3_3_3_3_3_3_3_3_3_3_3_3_3_3_3_3_3_3_3_3_3

New Line.breaker(r:p1rhs7_69-p1rts0_69)p1r_2822 Units=km Length=0.001 bus1=p1rhs7_69-p1rts0_69x.1.2.3 bus2=p1rhs7_69.1.2.3 switch=y enabled=y phases=3 Linecode=breaker_3_3_3_3_3_3_3_3_3_3_3_3_3_3_3_3_3_3_3_3_3_3_3_3_3_3_3_3_3

New Line.breaker(r:p1rhs1_69-p1rts1_69)p1r_2823 Units=km Length=0.001 bus1=p1rts1_69.1.2.3 bus2=p1rhs1_69-p1rts1_69xxx.1.2.3 switch=y enabled=y phases=3 Linecode=breaker_3_2_3_1_3_3_3_3_3_3_3_3_3_3_3_3_3_3_3_3_3_3_3_3_3_3_3_3_3_3_3

New Line.breaker(r:p1rhs1_69-p1rts1_69)p1r_2824 Units=km Length=0.001 bus1=p1rhs1_69-p1rts1_69x.1.2.3 bus2=p1rhs1_69.1.2.3 switch=y enabled=y phases=3 Linecode=breaker_3_2_3_1_3_3_3_3_3_3_3_3_3_3_3_3_3_3_3_3_3_3_3_3_3_3_3_3_3_3_3

New Line.breaker(r:p1rhs4_69-p1rts1_69)p1r_2825 Units=km Length=0.001 bus1=p1rts1_69.1.2.3 bus2=p1rhs4_69-p1rts1_69xx.1.2.3 switch=y enabled=y phases=3 Linecode=breaker_3_2_3_1_3_3_3_3_3_3_3_3_3_3_3_3_3_3_3_3_3_3_3_3_3_3_3_3_3_3_3

New Line.breaker(r:p1rhs4_69-p1rts1_69)p1r_2826 Units=km Length=0.001 bus1=p1rhs4_69-p1rts1_69x.1.2.3 bus2=p1rhs4_69.1.2.3 switch=y enabled=y phases=3 Linecode=breaker_3_2_3_1_3_3_3_3_3_3_3_3_3_3_3_3_3_3_3_3_3_3_3_3_3_3_3_3_3_3_3

New Line.breaker(r:p1rhs6_69-p1rts3_69)p1r_2827 Units=km Length=0.001 bus1=p1rts3_69.1.2.3 bus2=p1rhs6_69-p1rts3_69xxx.1.2.3 switch=y enabled=y phases=3 Linecode=breaker_3_2_3_1_3_3_3_3_3_3_3_3_3_3_3_3_3_3_3_3_3_3_3_3_3_3_3_3_3_3_3

New Line.breaker(r:p1rhs6_69-p1rts3_69)p1r_2828 Units=km Length=0.001 bus1=p1rhs6_69-p1rts3_69x.1.2.3 bus2=p1rhs6_69.1.2.3 switch=y enabled=y phases=3 Linecode=breaker_3_2_3_1_3_3_3_3_3_3_3_3_3_3_3_3_3_3_3_3_3_3_3_3_3_3_3_3_3_3_3

New Line.breaker(r:p1rhs2_69-p1rts0_69)p1r_2829 Units=km Length=0.001 bus1=p1rts0_69.1.2.3 bus2=p1rhs2_69-p1rts0_69xx.1.2.3 switch=y enabled=y phases=3 Linecode=breaker_3_2_3_1_3_3_3_3_3_3_3_3_3_3_3_3_3_3_3_3_3_3_3_3_3_3_3_3_3_3_3

New Line.breaker(r:p1rhs2_69-p1rts0_69)p1r_2830 Units=km Length=0.001 bus1=p1rhs2_69-p1rts0_69x.1.2.3 bus2=p1rhs2_69.1.2.3 switch=y enabled=y phases=3 Linecode=breaker_3_2_3_1_3_1_3_3_3_3_3_3_3_3_3_3_3_3_3_3_3_3_3_3_3_3_3_3_3_3_3_3

New Line.breaker(r:p1rhs0_69-p1rts0_69)p1r_2831 Units=km Length=0.001 bus1=p1rts0_69.1.2.3 bus2=p1rhs0_69-p1rts0_69xx.1.2.3 switch=y enabled=y phases=3 Linecode=breaker_3_2_3_1_3_3_3_3_3_3_3_3_3_3_3_3_3_3_3_3_3_3_3_3_3_3_3_3_3_3_3

New Line.breaker(r:p1rhs0_69-p1rts0_69)p1r_2832 Units=km Length=0.001 bus1=p1rhs0_69-p1rts0_69x.1.2.3 bus2=p1rhs0_69.1.2.3 switch=y enabled=y phases=3 Linecode=breaker_3_2_3_1_3_3_3_3_3_3_3_3_3_3_3_3_3_3_3_3_3_3_3_3_3_3_3_3_3_3_3

New Line.breaker(r:p1rhs5_69-p1rts3_69)p1r_2833 Units=km Length=0.001 bus1=p1rts3_69.1.2.3 bus2=p1rhs5_69-p1rts3_69xx.1.2.3 switch=y enabled=y phases=3 Linecode=breaker_3_2_3_1_3_1_3_1_3_3_3_3_3_3_3_3_3_3_3_3_3_3_3_3_3_3_3_3_3_3_3_3_3

New Line.breaker(r:p1rhs5_69-p1rts3_69)p1r_2834 Units=km Length=0.001 bus1=p1rhs5_69-p1rts3_69x.1.2.3 bus2=p1rhs5_69.1.2.3 switch=y enabled=y phases=3 Linecode=breaker_3_2_3_1_3_1_3_3_3_3_3_3_3_3_3_3_3_3_3_3_3_3_3_3_3_3_3_3_3_3_3_3

New Line.breaker(r:p1rhs3_69-p1rts2_69)p1r_2835 Units=km Length=0.001 bus1=p1rts2_69.1.2.3 bus2=p1rhs3_69-p1rts2_69xx.1.2.3 switch=y enabled=y phases=3 Linecode=breaker_3_2_3_1_3_3_3_3_3_3_3_3_3_3_3_3_3_3_3_3_3_3_3_3_3_3_3_3_3_3_3

New Line.breaker(r:p1rhs3_69-p1rts2_69)p1r_2836 Units=km Length=0.001 bus1=p1rhs3_69-p1rts2_69x.1.2.3 bus2=p1rhs3_69.1.2.3 switch=y enabled=y phases=3 Linecode=breaker_3_2_3_1_3_1_3_1_3_3_3_3_3_3_3_3_3_3_3_3_3_3_3_3_3_3_3_3_3_3_3_3_3

