New Load.load_p4ulv101 conn=wye bus1=p4ulv101.1.2 kV=0.2080002494301389 Vminpu=0.8 Vmaxpu=1.2 model=1 kW=7.490070000000001 kvar=1.5209235822549367 Phases=2

New Load.load_p4ulv102 conn=wye bus1=p4ulv102.1.2 kV=0.2080002494301389 Vminpu=0.8 Vmaxpu=1.2 model=1 kW=6.94007 kvar=1.4092413189062343 Phases=2

New Load.load_p4ulv103 conn=wye bus1=p4ulv103.1.2 kV=0.2080002494301389 Vminpu=0.8 Vmaxpu=1.2 model=1 kW=6.530070000000001 kvar=1.3294001873557917 Phases=2

New Load.load_p4ulv105 conn=wye bus1=p4ulv105.1.2 kV=0.2080002494301389 Vminpu=0.8 Vmaxpu=1.2 model=1 kW=5.79006 kvar=1.1787479841412536 Phases=2

New Load.load_p4ulv132 conn=wye bus1=p4ulv132.1.2 kV=0.2080002494301389 Vminpu=0.8 Vmaxpu=1.2 model=1 kW=5.460050000000001 kvar=1.1087104399946952 Phases=2

New Load.load_p4ulv133 conn=wye bus1=p4ulv133.1.2 kV=0.2080002494301389 Vminpu=0.8 Vmaxpu=1.2 model=1 kW=7.43007 kvar=1.5087400626168963 Phases=2

New Load.load_p4ulv134 conn=wye bus1=p4ulv134.1.2 kV=0.2080002494301389 Vminpu=0.8 Vmaxpu=1.2 model=1 kW=2.46002 kvar=0.49952836633286324 Phases=2

New Load.load_p4ulv565 conn=wye bus1=p4ulv565.1.2 kV=0.2080002494301389 Vminpu=0.8 Vmaxpu=1.2 model=1 kW=6.46006 kvar=1.30838712713042 Phases=2

New Load.load_p4ulv566 conn=wye bus1=p4ulv566.1.2 kV=0.2080002494301389 Vminpu=0.8 Vmaxpu=1.2 model=1 kW=8.16008 kvar=1.6612397540666863 Phases=2

New Load.load_p4ulv567 conn=wye bus1=p4ulv567.1.2 kV=0.2080002494301389 Vminpu=0.8 Vmaxpu=1.2 model=1 kW=5.90006 kvar=1.2011419279441737 Phases=2

New Load.load_p4ulv568 conn=wye bus1=p4ulv568.1.2 kV=0.2080002494301389 Vminpu=0.8 Vmaxpu=1.2 model=1 kW=8.480080000000001 kvar=1.7219536868692071 Phases=2

New Load.load_p4ulv569 conn=wye bus1=p4ulv569.1.2 kV=0.2080002494301389 Vminpu=0.8 Vmaxpu=1.2 model=1 kW=6.71007 kvar=1.3590228589431081 Phases=2

New Load.load_p4ulv570 conn=wye bus1=p4ulv570.1.2 kV=0.2080002494301389 Vminpu=0.8 Vmaxpu=1.2 model=1 kW=5.380050000000001 kvar=1.7702453274420942 Phases=2

New Load.load_p4ulv962 conn=wye bus1=p4ulv962.1.2 kV=0.2080002494301389 Vminpu=0.8 Vmaxpu=1.2 model=1 kW=7.10007 kvar=1.4417307046076748 Phases=2

New Load.load_p4ulv993 conn=wye bus1=p4ulv993.1.2 kV=0.2080002494301389 Vminpu=0.8 Vmaxpu=1.2 model=1 kW=5.40005 kvar=1.0993492384814623 Phases=2

New Load.load_p4ulv1313 conn=wye bus1=p4ulv1313.1.2 kV=0.2080002494301389 Vminpu=0.8 Vmaxpu=1.2 model=1 kW=6.40006 kvar=1.2995876115772655 Phases=2

New Load.load_p4ulv1314 conn=wye bus1=p4ulv1314.1.2 kV=0.2080002494301389 Vminpu=0.8 Vmaxpu=1.2 model=1 kW=8.13008 kvar=1.6508831556473056 Phases=2

New Load.load_p4ulv1382 conn=wye bus1=p4ulv1382.1.2 kV=0.2080002494301389 Vminpu=0.8 Vmaxpu=1.2 model=1 kW=8.15008 kvar=1.6592039409936938 Phases=2

New Load.load_p4ulv1383 conn=wye bus1=p4ulv1383.1.2 kV=0.2080002494301389 Vminpu=0.8 Vmaxpu=1.2 model=1 kW=7.90008 kvar=1.600041327062053 Phases=2

New Load.load_p4ulv1384 conn=wye bus1=p4ulv1384.1.2 kV=0.2080002494301389 Vminpu=0.8 Vmaxpu=1.2 model=1 kW=7.62008 kvar=1.5513058481250768 Phases=2

New Load.load_p4ulv1385 conn=wye bus1=p4ulv1385.1.2 kV=0.2080002494301389 Vminpu=0.8 Vmaxpu=1.2 model=1 kW=6.01006 kvar=1.2203947339300039 Phases=2

New Load.load_p4ulv1390 conn=wye bus1=p4ulv1390.1.2 kV=0.2080002494301389 Vminpu=0.8 Vmaxpu=1.2 model=1 kW=6.28006 kvar=1.2785028247178991 Phases=2

New Load.load_p4ulv1415 conn=wye bus1=p4ulv1415.1.2 kV=0.2080002494301389 Vminpu=0.8 Vmaxpu=1.2 model=1 kW=6.66007 kvar=1.348896117650222 Phases=2

New Load.load_p4ulv1416 conn=wye bus1=p4ulv1416.1.2 kV=0.2080002494301389 Vminpu=0.8 Vmaxpu=1.2 model=1 kW=9.120090000000001 kvar=1.8519132602615762 Phases=2

New Load.load_p4ulv1417 conn=wye bus1=p4ulv1417.1.2 kV=0.2080002494301389 Vminpu=0.8 Vmaxpu=1.2 model=1 kW=6.140060000000001 kvar=1.2500014416960006 Phases=2

New Load.load_p4ulv1418 conn=wye bus1=p4ulv1418.1.2 kV=0.2080002494301389 Vminpu=0.8 Vmaxpu=1.2 model=1 kW=6.13006 kvar=1.2415506345973724 Phases=2

New Load.load_p4ulv1756 conn=wye bus1=p4ulv1756.1.2 kV=0.2080002494301389 Vminpu=0.8 Vmaxpu=1.2 model=1 kW=5.75006 kvar=1.1706047318492825 Phases=2

New Load.load_p4ulv1757 conn=wye bus1=p4ulv1757.1.2 kV=0.2080002494301389 Vminpu=0.8 Vmaxpu=1.2 model=1 kW=6.49006 kvar=1.3212548992507473 Phases=2

New Load.load_p4ulv1817 conn=wye bus1=p4ulv1817.1.2 kV=0.2080002494301389 Vminpu=0.8 Vmaxpu=1.2 model=1 kW=7.27007 kvar=1.4800503547572565 Phases=2

New Load.load_p4ulv1841 conn=wye bus1=p4ulv1841.1.2 kV=0.2080002494301389 Vminpu=0.8 Vmaxpu=1.2 model=1 kW=7.52008 kvar=1.5309477173951491 Phases=2

New Load.load_p4ulv1846 conn=wye bus1=p4ulv1846.1.2 kV=0.2080002494301389 Vminpu=0.8 Vmaxpu=1.2 model=1 kW=5.28005 kvar=1.069394007270052 Phases=2

New Load.load_p4ulv2207 conn=wye bus1=p4ulv2207.1.2 kV=0.2080002494301389 Vminpu=0.8 Vmaxpu=1.2 model=1 kW=0.440004 kvar=0.14004246738579937 Phases=2

New Load.load_p4ulv2209 conn=wye bus1=p4ulv2209.1.2 kV=0.2080002494301389 Vminpu=0.8 Vmaxpu=1.2 model=1 kW=7.09007 kvar=1.4397001180013347 Phases=2

New Load.load_p4ulv2217 conn=wye bus1=p4ulv2217.1.2 kV=0.2080002494301389 Vminpu=0.8 Vmaxpu=1.2 model=1 kW=8.24008 kvar=1.6689031678536776 Phases=2

New Load.load_p4ulv2233 conn=wye bus1=p4ulv2233.1.2 kV=0.2080002494301389 Vminpu=0.8 Vmaxpu=1.2 model=1 kW=6.63007 kvar=1.349758318085719 Phases=2

New Load.load_p4ulv2234 conn=wye bus1=p4ulv2234.1.2 kV=0.2080002494301389 Vminpu=0.8 Vmaxpu=1.2 model=1 kW=6.65007 kvar=1.3503543073223732 Phases=2

New Load.load_p4ulv2235 conn=wye bus1=p4ulv2235.1.2 kV=0.2080002494301389 Vminpu=0.8 Vmaxpu=1.2 model=1 kW=5.76006 kvar=1.1696300687715029 Phases=2

New Load.load_p4ulv2236 conn=wye bus1=p4ulv2236.1.2 kV=0.2080002494301389 Vminpu=0.8 Vmaxpu=1.2 model=1 kW=3.79004 kvar=0.7696004461493017 Phases=2

New Load.load_p4ulv2237 conn=wye bus1=p4ulv2237.1.2 kV=0.2080002494301389 Vminpu=0.8 Vmaxpu=1.2 model=1 kW=4.99005 kvar=1.0106589077713133 Phases=2

New Load.load_p4ulv2238 conn=wye bus1=p4ulv2238.1.2 kV=0.2080002494301389 Vminpu=0.8 Vmaxpu=1.2 model=1 kW=5.21005 kvar=1.0606687900945995 Phases=2

New Load.load_p4ulv2539 conn=wye bus1=p4ulv2539.1.2 kV=0.2080002494301389 Vminpu=0.8 Vmaxpu=1.2 model=1 kW=8.00008 kvar=1.6202948096478251 Phases=2

New Load.load_p4ulv2614 conn=wye bus1=p4ulv2614.1.2 kV=0.2080002494301389 Vminpu=0.8 Vmaxpu=1.2 model=1 kW=7.070070000000001 kvar=1.4393340932974013 Phases=2

New Load.load_p4ulv2615 conn=wye bus1=p4ulv2615.1.2 kV=0.2080002494301389 Vminpu=0.8 Vmaxpu=1.2 model=1 kW=6.350060000000001 kvar=1.2894346785455655 Phases=2

New Load.load_p4ulv2643 conn=wye bus1=p4ulv2643.1.2 kV=0.2080002494301389 Vminpu=0.8 Vmaxpu=1.2 model=1 kW=9.590100000000001 kvar=1.952365095130799 Phases=2

New Load.load_p4ulv2644 conn=wye bus1=p4ulv2644.1.2 kV=0.2080002494301389 Vminpu=0.8 Vmaxpu=1.2 model=1 kW=7.320070000000001 kvar=1.4902294201222208 Phases=2

New Load.load_p4ulv2645 conn=wye bus1=p4ulv2645.1.2 kV=0.2080002494301389 Vminpu=0.8 Vmaxpu=1.2 model=1 kW=7.54008 kvar=1.531078545873243 Phases=2

New Load.load_p4ulv2646 conn=wye bus1=p4ulv2646.1.2 kV=0.2080002494301389 Vminpu=0.8 Vmaxpu=1.2 model=1 kW=5.45005 kvar=1.109528303846426 Phases=2

New Load.load_p4ulv3060 conn=wye bus1=p4ulv3060.1.2 kV=0.2080002494301389 Vminpu=0.8 Vmaxpu=1.2 model=1 kW=5.24005 kvar=1.0612926142357433 Phases=2

New Load.load_p4ulv3068 conn=wye bus1=p4ulv3068.1.2 kV=0.2080002494301389 Vminpu=0.8 Vmaxpu=1.2 model=1 kW=6.34006 kvar=1.2907177031558559 Phases=2

New Load.load_p4ulv3085 conn=wye bus1=p4ulv3085.1.2 kV=0.2080002494301389 Vminpu=0.8 Vmaxpu=1.2 model=1 kW=5.890060000000001 kvar=1.199106114871181 Phases=2

New Load.load_p4ulv3086 conn=wye bus1=p4ulv3086.1.2 kV=0.2080002494301389 Vminpu=0.8 Vmaxpu=1.2 model=1 kW=6.71007 kvar=1.3590228589431081 Phases=2

New Load.load_p4ulv3464 conn=wye bus1=p4ulv3464.1.2 kV=0.2080002494301389 Vminpu=0.8 Vmaxpu=1.2 model=1 kW=7.33007 kvar=1.488434196553496 Phases=2

New Load.load_p4ulv3465 conn=wye bus1=p4ulv3465.1.2 kV=0.2080002494301389 Vminpu=0.8 Vmaxpu=1.2 model=1 kW=6.44006 kvar=1.3110758338857833 Phases=2

New Load.load_p4ulv3485 conn=wye bus1=p4ulv3485.1.2 kV=0.2080002494301389 Vminpu=0.8 Vmaxpu=1.2 model=1 kW=7.00007 kvar=1.4214248385442743 Phases=2

New Load.load_p4ulv3487 conn=wye bus1=p4ulv3487.1.2 kV=0.2080002494301389 Vminpu=0.8 Vmaxpu=1.2 model=1 kW=3.74004 kvar=0.7594475131176014 Phases=2

New Load.load_p4ulv3488 conn=wye bus1=p4ulv3488.1.2 kV=0.2080002494301389 Vminpu=0.8 Vmaxpu=1.2 model=1 kW=5.65006 kvar=1.1502466011193542 Phases=2

New Load.load_p4ulv3489 conn=wye bus1=p4ulv3489.1.2 kV=0.2080002494301389 Vminpu=0.8 Vmaxpu=1.2 model=1 kW=5.27005 kvar=1.0701292944742342 Phases=2

New Load.load_p4ulv3916 conn=wye bus1=p4ulv3916.1.2 kV=0.2080002494301389 Vminpu=0.8 Vmaxpu=1.2 model=1 kW=6.63007 kvar=1.349758318085719 Phases=2

New Load.load_p4ulv3925 conn=wye bus1=p4ulv3925.1.2 kV=0.2080002494301389 Vminpu=0.8 Vmaxpu=1.2 model=1 kW=5.88006 kvar=1.1909169281329426 Phases=2

New Load.load_p4ulv3947 conn=wye bus1=p4ulv3947.1.2 kV=0.2080002494301389 Vminpu=0.8 Vmaxpu=1.2 model=1 kW=6.93007 kvar=1.4108327102755023 Phases=2

New Load.load_p4ulv4256 conn=wye bus1=p4ulv4256.1.2 kV=0.2080002494301389 Vminpu=0.8 Vmaxpu=1.2 model=1 kW=6.51007 kvar=1.3185158937715642 Phases=2

New Load.load_p4ulv4327 conn=wye bus1=p4ulv4327.1.2 kV=0.2080002494301389 Vminpu=0.8 Vmaxpu=1.2 model=1 kW=7.76008 kvar=1.5798072311469755 Phases=2

New Load.load_p4ulv4328 conn=wye bus1=p4ulv4328.1.2 kV=0.2080002494301389 Vminpu=0.8 Vmaxpu=1.2 model=1 kW=6.570070000000001 kvar=1.3306679833230275 Phases=2

New Load.load_p4ulv4341 conn=wye bus1=p4ulv4341.1.2 kV=0.2080002494301389 Vminpu=0.8 Vmaxpu=1.2 model=1 kW=6.66007 kvar=1.348896117650222 Phases=2

New Load.load_p4ulv4342 conn=wye bus1=p4ulv4342.1.2 kV=0.2080002494301389 Vminpu=0.8 Vmaxpu=1.2 model=1 kW=6.51007 kvar=1.3185158937715642 Phases=2

New Load.load_p4ulv4343 conn=wye bus1=p4ulv4343.1.2 kV=0.2080002494301389 Vminpu=0.8 Vmaxpu=1.2 model=1 kW=2.42002 kvar=0.49013832927219847 Phases=2

New Load.load_p4ulv4642 conn=wye bus1=p4ulv4642.1.2 kV=0.2080002494301389 Vminpu=0.8 Vmaxpu=1.2 model=1 kW=5.67006 kvar=1.1513547893144422 Phases=2

New Load.load_p4ulv4709 conn=wye bus1=p4ulv4709.1.2 kV=0.2080002494301389 Vminpu=0.8 Vmaxpu=1.2 model=1 kW=6.29006 kvar=1.280538637790892 Phases=2

New Load.load_p4ulv4712 conn=wye bus1=p4ulv4712.1.2 kV=0.2080002494301389 Vminpu=0.8 Vmaxpu=1.2 model=1 kW=8.43008 kvar=1.7118007538375068 Phases=2

New Load.load_p4ulv4728 conn=wye bus1=p4ulv4728.1.2 kV=0.2080002494301389 Vminpu=0.8 Vmaxpu=1.2 model=1 kW=2.52003 kvar=0.8300809312173816 Phases=2

New Load.load_p4ulv5053 conn=wye bus1=p4ulv5053.1.2 kV=0.2080002494301389 Vminpu=0.8 Vmaxpu=1.2 model=1 kW=6.52007 kvar=1.3205412420301414 Phases=2

New Load.load_p4ulv5127 conn=wye bus1=p4ulv5127.1.2 kV=0.2080002494301389 Vminpu=0.8 Vmaxpu=1.2 model=1 kW=6.62007 kvar=1.3407947246159133 Phases=2

New Load.load_p4ulv5128 conn=wye bus1=p4ulv5128.1.2 kV=0.2080002494301389 Vminpu=0.8 Vmaxpu=1.2 model=1 kW=6.83007 kvar=1.3904745795455744 Phases=2

New Load.load_p4ulv5149 conn=wye bus1=p4ulv5149.1.2 kV=0.2080002494301389 Vminpu=0.8 Vmaxpu=1.2 model=1 kW=6.12006 kvar=1.239525286338795 Phases=2

New Load.load_p4ulv5150 conn=wye bus1=p4ulv5150.1.2 kV=0.2080002494301389 Vminpu=0.8 Vmaxpu=1.2 model=1 kW=7.52008 kvar=1.5309477173951491 Phases=2

New Load.load_p4ulv5151 conn=wye bus1=p4ulv5151.1.2 kV=0.2080002494301389 Vminpu=0.8 Vmaxpu=1.2 model=1 kW=7.880080000000001 kvar=2.590057043537856 Phases=2

New Load.load_p4ulv5152 conn=wye bus1=p4ulv5152.1.2 kV=0.2080002494301389 Vminpu=0.8 Vmaxpu=1.2 model=1 kW=5.07005 kvar=1.0295175623474335 Phases=2

New Load.load_p4ulv5153 conn=wye bus1=p4ulv5153.1.2 kV=0.2080002494301389 Vminpu=0.8 Vmaxpu=1.2 model=1 kW=5.86006 kvar=1.1899359348349032 Phases=2

New Load.load_p4ulv5495 conn=wye bus1=p4ulv5495.1.2 kV=0.2080002494301389 Vminpu=0.8 Vmaxpu=1.2 model=1 kW=7.40007 kvar=1.4987718887849348 Phases=2

New Load.load_p4ulv5583 conn=wye bus1=p4ulv5583.1.2 kV=0.2080002494301389 Vminpu=0.8 Vmaxpu=1.2 model=1 kW=7.38007 kvar=1.498587129585196 Phases=2

New Load.load_p4ulv5598 conn=wye bus1=p4ulv5598.1.2 kV=0.2080002494301389 Vminpu=0.8 Vmaxpu=1.2 model=1 kW=6.60007 kvar=1.3402013742906727 Phases=2

New Load.load_p4ulv5599 conn=wye bus1=p4ulv5599.1.2 kV=0.2080002494301389 Vminpu=0.8 Vmaxpu=1.2 model=1 kW=6.72007 kvar=1.3715849355020187 Phases=2

New Load.load_p4ulv5600 conn=wye bus1=p4ulv5600.1.2 kV=0.2080002494301389 Vminpu=0.8 Vmaxpu=1.2 model=1 kW=5.19005 kvar=1.0511658729428572 Phases=2

New Load.load_p4ulv5601 conn=wye bus1=p4ulv5601.1.2 kV=0.2080002494301389 Vminpu=0.8 Vmaxpu=1.2 model=1 kW=9.6501 kvar=1.959536380984205 Phases=2

New Load.load_p4ulv5603 conn=wye bus1=p4ulv5603.1.2 kV=0.2080002494301389 Vminpu=0.8 Vmaxpu=1.2 model=1 kW=6.12006 kvar=1.239525286338795 Phases=2

New Load.load_p4ulv5604 conn=wye bus1=p4ulv5604.1.2 kV=0.2080002494301389 Vminpu=0.8 Vmaxpu=1.2 model=1 kW=5.21005 kvar=1.0606687900945995 Phases=2

New Load.load_p4ulv5988 conn=wye bus1=p4ulv5988.1.2 kV=0.2080002494301389 Vminpu=0.8 Vmaxpu=1.2 model=1 kW=6.79007 kvar=1.3787825198111334 Phases=2

New Load.load_p4ulv6002 conn=wye bus1=p4ulv6002.1.2 kV=0.2080002494301389 Vminpu=0.8 Vmaxpu=1.2 model=1 kW=6.25006 kvar=1.269128812482165 Phases=2

New Load.load_p4ulv6004 conn=wye bus1=p4ulv6004.1.2 kV=0.2080002494301389 Vminpu=0.8 Vmaxpu=1.2 model=1 kW=6.390060000000001 kvar=1.3008967685208197 Phases=2

New Load.load_p4ulv6005 conn=wye bus1=p4ulv6005.1.2 kV=0.2080002494301389 Vminpu=0.8 Vmaxpu=1.2 model=1 kW=6.79007 kvar=1.3787825198111334 Phases=2

New Load.load_p4ulv6006 conn=wye bus1=p4ulv6006.1.2 kV=0.2080002494301389 Vminpu=0.8 Vmaxpu=1.2 model=1 kW=3.9400400000000007 kvar=0.8000592452444024 Phases=2

New Load.load_p4ulv6334 conn=wye bus1=p4ulv6334.1.2 kV=0.2080002494301389 Vminpu=0.8 Vmaxpu=1.2 model=1 kW=6.100060000000001 kvar=1.2386700133870643 Phases=2

New Load.load_p4ulv6419 conn=wye bus1=p4ulv6419.1.2 kV=0.2080002494301389 Vminpu=0.8 Vmaxpu=1.2 model=1 kW=8.76009 kvar=1.7788121424333347 Phases=2

New Load.load_p4ulv6420 conn=wye bus1=p4ulv6420.1.2 kV=0.2080002494301389 Vminpu=0.8 Vmaxpu=1.2 model=1 kW=6.100060000000001 kvar=1.2386700133870643 Phases=2

New Load.load_p4ulv6421 conn=wye bus1=p4ulv6421.1.2 kV=0.2080002494301389 Vminpu=0.8 Vmaxpu=1.2 model=1 kW=0.97001 kvar=0.19999378740358226 Phases=2

New Load.load_p4ulv6805 conn=wye bus1=p4ulv6805.1.2 kV=0.2080002494301389 Vminpu=0.8 Vmaxpu=1.2 model=1 kW=5.95006 kvar=1.2113209933091376 Phases=2

New Load.load_p4ulv6816 conn=wye bus1=p4ulv6816.1.2 kV=0.2080002494301389 Vminpu=0.8 Vmaxpu=1.2 model=1 kW=8.32008 kvar=1.6894643011677664 Phases=2

New Load.load_p4ulv6838 conn=wye bus1=p4ulv6838.1.2 kV=0.2080002494301389 Vminpu=0.8 Vmaxpu=1.2 model=1 kW=5.76006 kvar=1.1696300687715029 Phases=2

New Load.load_p4ulv6839 conn=wye bus1=p4ulv6839.1.2 kV=0.2080002494301389 Vminpu=0.8 Vmaxpu=1.2 model=1 kW=6.62007 kvar=1.3407947246159133 Phases=2

New Load.load_p4ulv6840 conn=wye bus1=p4ulv6840.1.2 kV=0.2080002494301389 Vminpu=0.8 Vmaxpu=1.2 model=1 kW=6.08006 kvar=1.2409571184449573 Phases=2

New Load.load_p4ulv6841 conn=wye bus1=p4ulv6841.1.2 kV=0.2080002494301389 Vminpu=0.8 Vmaxpu=1.2 model=1 kW=7.490070000000001 kvar=1.5209235822549367 Phases=2

New Load.load_p4ulv6842 conn=wye bus1=p4ulv6842.1.2 kV=0.2080002494301389 Vminpu=0.8 Vmaxpu=1.2 model=1 kW=6.44006 kvar=1.3110758338857833 Phases=2

New Load.load_p4ulv6843 conn=wye bus1=p4ulv6843.1.2 kV=0.2080002494301389 Vminpu=0.8 Vmaxpu=1.2 model=1 kW=1.79002 kvar=0.5902545367257196 Phases=2

New Load.load_p4ulv6844 conn=wye bus1=p4ulv6844.1.2 kV=0.2080002494301389 Vminpu=0.8 Vmaxpu=1.2 model=1 kW=5.47005 kvar=1.110741026601035 Phases=2

New Load.load_p4ulv6845 conn=wye bus1=p4ulv6845.1.2 kV=0.2080002494301389 Vminpu=0.8 Vmaxpu=1.2 model=1 kW=5.66006 kvar=1.149324202708102 Phases=2

New Load.load_p4ulv7221 conn=wye bus1=p4ulv7221.1.2 kV=0.2080002494301389 Vminpu=0.8 Vmaxpu=1.2 model=1 kW=7.19007 kvar=1.4600059840647355 Phases=2

New Load.load_p4ulv7243 conn=wye bus1=p4ulv7243.1.2 kV=0.2080002494301389 Vminpu=0.8 Vmaxpu=1.2 model=1 kW=7.95008 kvar=1.6101680683549389 Phases=2

New Load.load_p4ulv7244 conn=wye bus1=p4ulv7244.1.2 kV=0.2080002494301389 Vminpu=0.8 Vmaxpu=1.2 model=1 kW=6.12006 kvar=1.239525286338795 Phases=2

New Load.load_p4ulv7245 conn=wye bus1=p4ulv7245.1.2 kV=0.2080002494301389 Vminpu=0.8 Vmaxpu=1.2 model=1 kW=7.95008 kvar=1.6101680683549389 Phases=2

New Load.load_p4ulv7246 conn=wye bus1=p4ulv7246.1.2 kV=0.2080002494301389 Vminpu=0.8 Vmaxpu=1.2 model=1 kW=2.36002 kvar=0.4804559568524403 Phases=2

New Load.load_p4ulv7680 conn=wye bus1=p4ulv7680.1.2 kV=0.2080002494301389 Vminpu=0.8 Vmaxpu=1.2 model=1 kW=6.11006 kvar=1.2407005999934042 Phases=2

New Load.load_p4ulv7681 conn=wye bus1=p4ulv7681.1.2 kV=0.2080002494301389 Vminpu=0.8 Vmaxpu=1.2 model=1 kW=5.84006 kvar=1.1889270495062174 Phases=2

New Load.load_p4ulv7682 conn=wye bus1=p4ulv7682.1.2 kV=0.2080002494301389 Vminpu=0.8 Vmaxpu=1.2 model=1 kW=7.18007 kvar=1.4617280371003216 Phases=2

New Load.load_p4ulv7683 conn=wye bus1=p4ulv7683.1.2 kV=0.2080002494301389 Vminpu=0.8 Vmaxpu=1.2 model=1 kW=6.19006 kvar=1.2601805070609642 Phases=2

New Load.load_p4ulv7684 conn=wye bus1=p4ulv7684.1.2 kV=0.2080002494301389 Vminpu=0.8 Vmaxpu=1.2 model=1 kW=3.47003 kvar=0.6991539790386396 Phases=2

New Load.load_p4ulv8017 conn=wye bus1=p4ulv8017.1.2 kV=0.2080002494301389 Vminpu=0.8 Vmaxpu=1.2 model=1 kW=8.02008 kvar=1.628546702977565 Phases=2

New Load.load_p4ulv8097 conn=wye bus1=p4ulv8097.1.2 kV=0.2080002494301389 Vminpu=0.8 Vmaxpu=1.2 model=1 kW=5.890060000000001 kvar=1.199106114871181 Phases=2

New Load.load_p4ulv8115 conn=wye bus1=p4ulv8115.1.2 kV=0.2080002494301389 Vminpu=0.8 Vmaxpu=1.2 model=1 kW=6.01006 kvar=1.2203947339300039 Phases=2

New Load.load_p4ulv8116 conn=wye bus1=p4ulv8116.1.2 kV=0.2080002494301389 Vminpu=0.8 Vmaxpu=1.2 model=1 kW=5.11005 kvar=1.0403106593646716 Phases=2

New Load.load_p4ulv8117 conn=wye bus1=p4ulv8117.1.2 kV=0.2080002494301389 Vminpu=0.8 Vmaxpu=1.2 model=1 kW=6.56007 kvar=1.3286426350644502 Phases=2

New Load.load_p4ulv8118 conn=wye bus1=p4ulv8118.1.2 kV=0.2080002494301389 Vminpu=0.8 Vmaxpu=1.2 model=1 kW=6.71007 kvar=1.3590228589431081 Phases=2

New Load.load_p4ulv8119 conn=wye bus1=p4ulv8119.1.2 kV=0.2080002494301389 Vminpu=0.8 Vmaxpu=1.2 model=1 kW=6.34006 kvar=1.2907177031558559 Phases=2

New Load.load_p4ulv8120 conn=wye bus1=p4ulv8120.1.2 kV=0.2080002494301389 Vminpu=0.8 Vmaxpu=1.2 model=1 kW=6.270060000000001 kvar=1.269905510217453 Phases=2

New Load.load_p4ulv8121 conn=wye bus1=p4ulv8121.1.2 kV=0.2080002494301389 Vminpu=0.8 Vmaxpu=1.2 model=1 kW=6.42006 kvar=1.300285734096111 Phases=2

New Load.load_p4ulv8122 conn=wye bus1=p4ulv8122.1.2 kV=0.2080002494301389 Vminpu=0.8 Vmaxpu=1.2 model=1 kW=5.86006 kvar=1.1899359348349032 Phases=2

New Load.load_p4ulv8470 conn=wye bus1=p4ulv8470.1.2 kV=0.2080002494301389 Vminpu=0.8 Vmaxpu=1.2 model=1 kW=6.94007 kvar=1.4092413189062343 Phases=2

New Load.load_p4ulv8551 conn=wye bus1=p4ulv8551.1.2 kV=0.2080002494301389 Vminpu=0.8 Vmaxpu=1.2 model=1 kW=0.9300090000000001 kvar=0.30994841936642104 Phases=2

New Load.load_p4ulv8571 conn=wye bus1=p4ulv8571.1.2 kV=0.2080002494301389 Vminpu=0.8 Vmaxpu=1.2 model=1 kW=6.42006 kvar=1.300285734096111 Phases=2

New Load.load_p4ulv8572 conn=wye bus1=p4ulv8572.1.2 kV=0.2080002494301389 Vminpu=0.8 Vmaxpu=1.2 model=1 kW=7.44007 kvar=1.5107706492232365 Phases=2

New Load.load_p4ulv8573 conn=wye bus1=p4ulv8573.1.2 kV=0.2080002494301389 Vminpu=0.8 Vmaxpu=1.2 model=1 kW=6.42006 kvar=1.300285734096111 Phases=2

New Load.load_p4ulv8574 conn=wye bus1=p4ulv8574.1.2 kV=0.2080002494301389 Vminpu=0.8 Vmaxpu=1.2 model=1 kW=5.26005 kvar=1.070847855459563 Phases=2

New Load.load_p4ulv8923 conn=wye bus1=p4ulv8923.1.2 kV=0.2080002494301389 Vminpu=0.8 Vmaxpu=1.2 model=1 kW=6.19006 kvar=1.2601805070609642 Phases=2

New Load.load_p4ulv9275 conn=wye bus1=p4ulv9275.1.2 kV=0.2080002494301389 Vminpu=0.8 Vmaxpu=1.2 model=1 kW=5.97006 kvar=1.2091450624601374 Phases=2

New Load.load_p4ulv9276 conn=wye bus1=p4ulv9276.1.2 kV=0.2080002494301389 Vminpu=0.8 Vmaxpu=1.2 model=1 kW=6.13006 kvar=1.2415506345973724 Phases=2

New Load.load_p4ulv9347 conn=wye bus1=p4ulv9347.1.2 kV=0.2080002494301389 Vminpu=0.8 Vmaxpu=1.2 model=1 kW=4.81005 kvar=0.9792362671748885 Phases=2

New Load.load_p4ulv9355 conn=wye bus1=p4ulv9355.1.2 kV=0.2080002494301389 Vminpu=0.8 Vmaxpu=1.2 model=1 kW=7.280070000000001 kvar=1.4782812635217957 Phases=2

New Load.load_p4ulv9357 conn=wye bus1=p4ulv9357.1.2 kV=0.2080002494301389 Vminpu=0.8 Vmaxpu=1.2 model=1 kW=7.17007 kvar=1.459692224027329 Phases=2

New Load.load_p4ulv9375 conn=wye bus1=p4ulv9375.1.2 kV=0.2080002494301389 Vminpu=0.8 Vmaxpu=1.2 model=1 kW=6.73007 kvar=1.370116448815647 Phases=2

New Load.load_p4ulv9376 conn=wye bus1=p4ulv9376.1.2 kV=0.2080002494301389 Vminpu=0.8 Vmaxpu=1.2 model=1 kW=6.310060000000001 kvar=1.2813123321202051 Phases=2

New Load.load_p4ulv9377 conn=wye bus1=p4ulv9377.1.2 kV=0.2080002494301389 Vminpu=0.8 Vmaxpu=1.2 model=1 kW=6.83007 kvar=1.3904745795455744 Phases=2

New Load.load_p4ulv9378 conn=wye bus1=p4ulv9378.1.2 kV=0.2080002494301389 Vminpu=0.8 Vmaxpu=1.2 model=1 kW=6.570070000000001 kvar=1.3306679833230275 Phases=2

New Load.load_p4ulv9379 conn=wye bus1=p4ulv9379.1.2 kV=0.2080002494301389 Vminpu=0.8 Vmaxpu=1.2 model=1 kW=6.23006 kvar=1.271572534701827 Phases=2

New Load.load_p4ulv9380 conn=wye bus1=p4ulv9380.1.2 kV=0.2080002494301389 Vminpu=0.8 Vmaxpu=1.2 model=1 kW=5.14005 kvar=1.0410391316499712 Phases=2

New Load.load_p4ulv9800 conn=wye bus1=p4ulv9800.1.2 kV=0.2080002494301389 Vminpu=0.8 Vmaxpu=1.2 model=1 kW=7.65008 kvar=1.549407620597623 Phases=2

New Load.load_p4ulv9801 conn=wye bus1=p4ulv9801.1.2 kV=0.2080002494301389 Vminpu=0.8 Vmaxpu=1.2 model=1 kW=7.13007 kvar=1.4515489717353578 Phases=2

New Load.load_p4ulv9820 conn=wye bus1=p4ulv9820.1.2 kV=0.2080002494301389 Vminpu=0.8 Vmaxpu=1.2 model=1 kW=6.32006 kvar=1.2800322515103388 Phases=2

New Load.load_p4ulv9821 conn=wye bus1=p4ulv9821.1.2 kV=0.2080002494301389 Vminpu=0.8 Vmaxpu=1.2 model=1 kW=5.02005 kvar=1.0193646293157332 Phases=2

New Load.load_p4ulv10219 conn=wye bus1=p4ulv10219.1.2 kV=0.2080002494301389 Vminpu=0.8 Vmaxpu=1.2 model=1 kW=9.48009 kvar=1.9200483772655084 Phases=2

New Load.load_p4ulv10225 conn=wye bus1=p4ulv10225.1.2 kV=0.2080002494301389 Vminpu=0.8 Vmaxpu=1.2 model=1 kW=6.81007 kvar=1.37927634152888 Phases=2

New Load.load_p4ulv10226 conn=wye bus1=p4ulv10226.1.2 kV=0.2080002494301389 Vminpu=0.8 Vmaxpu=1.2 model=1 kW=6.350060000000001 kvar=1.2894346785455655 Phases=2

New Load.load_p4ulv10241 conn=wye bus1=p4ulv10241.1.2 kV=0.2080002494301389 Vminpu=0.8 Vmaxpu=1.2 model=1 kW=5.36005 kvar=1.091205986189491 Phases=2

New Load.load_p4ulv10242 conn=wye bus1=p4ulv10242.1.2 kV=0.2080002494301389 Vminpu=0.8 Vmaxpu=1.2 model=1 kW=5.83006 kvar=1.180790186840056 Phases=2

New Load.load_p4ulv10634 conn=wye bus1=p4ulv10634.1.2 kV=0.2080002494301389 Vminpu=0.8 Vmaxpu=1.2 model=1 kW=5.78006 kvar=1.1706634455471703 Phases=2

New Load.load_p4ulv10638 conn=wye bus1=p4ulv10638.1.2 kV=0.2080002494301389 Vminpu=0.8 Vmaxpu=1.2 model=1 kW=8.49008 kvar=1.7195368743181074 Phases=2

New Load.load_p4ulv10656 conn=wye bus1=p4ulv10656.1.2 kV=0.2080002494301389 Vminpu=0.8 Vmaxpu=1.2 model=1 kW=6.66007 kvar=1.348896117650222 Phases=2

New Load.load_p4ulv10657 conn=wye bus1=p4ulv10657.1.2 kV=0.2080002494301389 Vminpu=0.8 Vmaxpu=1.2 model=1 kW=7.15007 kvar=1.448138182320505 Phases=2

New Load.load_p4ulv10972 conn=wye bus1=p4ulv10972.1.2 kV=0.2080002494301389 Vminpu=0.8 Vmaxpu=1.2 model=1 kW=6.26006 kvar=1.2711593990885048 Phases=2

New Load.load_p4ulv11078 conn=wye bus1=p4ulv11078.1.2 kV=0.2080002494301389 Vminpu=0.8 Vmaxpu=1.2 model=1 kW=6.45006 kvar=1.3097405446089656 Phases=2

New Load.load_p4ulv11081 conn=wye bus1=p4ulv11081.1.2 kV=0.2080002494301389 Vminpu=0.8 Vmaxpu=1.2 model=1 kW=3.87004 kvar=0.7898859035382418 Phases=2

New Load.load_p4ulv11083 conn=wye bus1=p4ulv11083.1.2 kV=0.2080002494301389 Vminpu=0.8 Vmaxpu=1.2 model=1 kW=5.30005 kvar=1.0789911077515342 Phases=2

New Load.load_p4ulv11485 conn=wye bus1=p4ulv11485.1.2 kV=0.2080002494301389 Vminpu=0.8 Vmaxpu=1.2 model=1 kW=8.81009 kvar=1.788965075465035 Phases=2

New Load.load_p4ulv11488 conn=wye bus1=p4ulv11488.1.2 kV=0.2080002494301389 Vminpu=0.8 Vmaxpu=1.2 model=1 kW=7.16007 kvar=1.4501635305790819 Phases=2

New Load.load_p4ulv11490 conn=wye bus1=p4ulv11490.1.2 kV=0.2080002494301389 Vminpu=0.8 Vmaxpu=1.2 model=1 kW=7.37007 kvar=1.5004084854871844 Phases=2

New Load.load_p4ulv11491 conn=wye bus1=p4ulv11491.1.2 kV=0.2080002494301389 Vminpu=0.8 Vmaxpu=1.2 model=1 kW=6.24006 kvar=1.270359572425928 Phases=2

New Load.load_p4ulv11508 conn=wye bus1=p4ulv11508.1.2 kV=0.2080002494301389 Vminpu=0.8 Vmaxpu=1.2 model=1 kW=9.370090000000001 kvar=1.8977695464211595 Phases=2

New Load.load_p4ulv11509 conn=wye bus1=p4ulv11509.1.2 kV=0.2080002494301389 Vminpu=0.8 Vmaxpu=1.2 model=1 kW=6.50007 kvar=1.319895508227272 Phases=2

New Load.load_p4ulv11510 conn=wye bus1=p4ulv11510.1.2 kV=0.2080002494301389 Vminpu=0.8 Vmaxpu=1.2 model=1 kW=6.86007 kvar=1.3894030828217663 Phases=2

New Load.load_p4ulv11511 conn=wye bus1=p4ulv11511.1.2 kV=0.2080002494301389 Vminpu=0.8 Vmaxpu=1.2 model=1 kW=7.11007 kvar=1.4400367892861963 Phases=2

New Load.load_p4ulv11512 conn=wye bus1=p4ulv11512.1.2 kV=0.2080002494301389 Vminpu=0.8 Vmaxpu=1.2 model=1 kW=7.44007 kvar=1.5107706492232365 Phases=2

New Load.load_p4ulv11513 conn=wye bus1=p4ulv11513.1.2 kV=0.2080002494301389 Vminpu=0.8 Vmaxpu=1.2 model=1 kW=5.69006 kvar=1.1613570361770957 Phases=2

New Load.load_p4ulv11514 conn=wye bus1=p4ulv11514.1.2 kV=0.2080002494301389 Vminpu=0.8 Vmaxpu=1.2 model=1 kW=4.11004 kvar=0.8302683323425464 Phases=2

New Load.load_p4ulv11515 conn=wye bus1=p4ulv11515.1.2 kV=0.2080002494301389 Vminpu=0.8 Vmaxpu=1.2 model=1 kW=6.63007 kvar=1.349758318085719 Phases=2

New Load.load_p4ulv11516 conn=wye bus1=p4ulv11516.1.2 kV=0.2080002494301389 Vminpu=0.8 Vmaxpu=1.2 model=1 kW=0.640006 kvar=0.20990523349064538 Phases=2

New Load.load_p4ulv11517 conn=wye bus1=p4ulv11517.1.2 kV=0.2080002494301389 Vminpu=0.8 Vmaxpu=1.2 model=1 kW=5.560060000000001 kvar=1.129018336644702 Phases=2

New Load.load_p4ulv11919 conn=wye bus1=p4ulv11919.1.2 kV=0.2080002494301389 Vminpu=0.8 Vmaxpu=1.2 model=1 kW=7.13007 kvar=1.4515489717353578 Phases=2

New Load.load_p4ulv11938 conn=wye bus1=p4ulv11938.1.2 kV=0.2080002494301389 Vminpu=0.8 Vmaxpu=1.2 model=1 kW=6.29006 kvar=1.280538637790892 Phases=2

New Load.load_p4ulv11939 conn=wye bus1=p4ulv11939.1.2 kV=0.2080002494301389 Vminpu=0.8 Vmaxpu=1.2 model=1 kW=6.64007 kvar=1.3483237207160328 Phases=2

New Load.load_p4ulv11940 conn=wye bus1=p4ulv11940.1.2 kV=0.2080002494301389 Vminpu=0.8 Vmaxpu=1.2 model=1 kW=8.89009 kvar=1.809856144208232 Phases=2

New Load.load_p4ulv12296 conn=wye bus1=p4ulv12296.1.2 kV=0.2080002494301389 Vminpu=0.8 Vmaxpu=1.2 model=1 kW=7.09007 kvar=1.4397001180013347 Phases=2

New Load.load_p4ulv12297 conn=wye bus1=p4ulv12297.1.2 kV=0.2080002494301389 Vminpu=0.8 Vmaxpu=1.2 model=1 kW=5.33005 kvar=1.0795207485629381 Phases=2

New Load.load_p4ulv12396 conn=wye bus1=p4ulv12396.1.2 kV=0.2080002494301389 Vminpu=0.8 Vmaxpu=1.2 model=1 kW=5.61006 kvar=1.1391712696764018 Phases=2

New Load.load_p4ulv12397 conn=wye bus1=p4ulv12397.1.2 kV=0.2080002494301389 Vminpu=0.8 Vmaxpu=1.2 model=1 kW=2.69003 kvar=0.5504422049321929 Phases=2

New Load.load_p4ulv12398 conn=wye bus1=p4ulv12398.1.2 kV=0.2080002494301389 Vminpu=0.8 Vmaxpu=1.2 model=1 kW=6.270060000000001 kvar=1.269905510217453 Phases=2

New Load.load_p4ulv12400 conn=wye bus1=p4ulv12400.1.2 kV=0.2080002494301389 Vminpu=0.8 Vmaxpu=1.2 model=1 kW=4.72005 kvar=0.9609139495179535 Phases=2

New Load.load_p4ulv12815 conn=wye bus1=p4ulv12815.1.2 kV=0.2080002494301389 Vminpu=0.8 Vmaxpu=1.2 model=1 kW=8.26008 kvar=1.681597884796614 Phases=2

New Load.load_p4ulv12833 conn=wye bus1=p4ulv12833.1.2 kV=0.2080002494301389 Vminpu=0.8 Vmaxpu=1.2 model=1 kW=6.85007 kvar=1.3909660394491736 Phases=2

New Load.load_p4ulv12834 conn=wye bus1=p4ulv12834.1.2 kV=0.2080002494301389 Vminpu=0.8 Vmaxpu=1.2 model=1 kW=5.39005 kvar=1.7697103455793848 Phases=2

New Load.load_p4ulv13252 conn=wye bus1=p4ulv13252.1.2 kV=0.2080002494301389 Vminpu=0.8 Vmaxpu=1.2 model=1 kW=7.11007 kvar=1.4400367892861963 Phases=2

New Load.load_p4ulv13253 conn=wye bus1=p4ulv13253.1.2 kV=0.2080002494301389 Vminpu=0.8 Vmaxpu=1.2 model=1 kW=6.990070000000001 kvar=1.4193942519379346 Phases=2

New Load.load_p4ulv13258 conn=wye bus1=p4ulv13258.1.2 kV=0.2080002494301389 Vminpu=0.8 Vmaxpu=1.2 model=1 kW=7.16007 kvar=1.4501635305790819 Phases=2

New Load.load_p4ulv13259 conn=wye bus1=p4ulv13259.1.2 kV=0.2080002494301389 Vminpu=0.8 Vmaxpu=1.2 model=1 kW=7.74008 kvar=1.5716902780000437 Phases=2

New Load.load_p4ulv13275 conn=wye bus1=p4ulv13275.1.2 kV=0.2080002494301389 Vminpu=0.8 Vmaxpu=1.2 model=1 kW=8.56009 kvar=1.7382004103065338 Phases=2

New Load.load_p4ulv13276 conn=wye bus1=p4ulv13276.1.2 kV=0.2080002494301389 Vminpu=0.8 Vmaxpu=1.2 model=1 kW=6.72007 kvar=1.3610482072016854 Phases=2

New Load.load_p4ulv13277 conn=wye bus1=p4ulv13277.1.2 kV=0.2080002494301389 Vminpu=0.8 Vmaxpu=1.2 model=1 kW=6.60007 kvar=1.3402013742906727 Phases=2

New Load.load_p4ulv13280 conn=wye bus1=p4ulv13280.1.2 kV=0.2080002494301389 Vminpu=0.8 Vmaxpu=1.2 model=1 kW=7.82008 kvar=1.5920221095849323 Phases=2

New Load.load_p4ulv13691 conn=wye bus1=p4ulv13691.1.2 kV=0.2080002494301389 Vminpu=0.8 Vmaxpu=1.2 model=1 kW=6.19006 kvar=1.2601805070609642 Phases=2

New Load.load_p4ulv13692 conn=wye bus1=p4ulv13692.1.2 kV=0.2080002494301389 Vminpu=0.8 Vmaxpu=1.2 model=1 kW=6.34006 kvar=1.2907177031558559 Phases=2

New Load.load_p4ulv14131 conn=wye bus1=p4ulv14131.1.2 kV=0.2080002494301389 Vminpu=0.8 Vmaxpu=1.2 model=1 kW=6.62007 kvar=1.3407947246159133 Phases=2

New Load.load_p4ulv14135 conn=wye bus1=p4ulv14135.1.2 kV=0.2080002494301389 Vminpu=0.8 Vmaxpu=1.2 model=1 kW=6.20006 kvar=1.2589758794504644 Phases=2
