New Line.l(r:p1rdt33lv-p1rlv34) Units=km Length=0.05083700000000001 bus1=p1rdt33lv.1.2 bus2=p1rlv34.1.2 switch=n enabled=y phases=2 Linecode=1P_OH_AL_4/0_Zuzara_0_416_0_2_2_2_2_2_2_2_2_2_2_2_2_2_2_2_2_2_2_2_2_2_2_2_2_2_2_2_2_2

New Line.l(r:p1rdm71-p1rlv2593) Units=km Length=0.051288 bus1=p1rdm71.1.2 bus2=p1rlv2593.1.2 switch=n enabled=y phases=2 Linecode=1P_OH_AL_4/0_Zuzara_0_416_0_2_2_2_2_2_2_2_2_2_2_2_2_2_2_2_2_2_2_2_2_2_2_2_2_2_2_2_2_2

New Line.l(r:p1rdm71-p1rlv4905) Units=km Length=0.0232832 bus1=p1rdm71.1.2 bus2=p1rlv4905.1.2 switch=n enabled=y phases=2 Linecode=1P_OH_AL_2/0_Rucina_0_416_0_2_2_2_2_2_2_2_2_2_2_2_2_2_2_2_2_2_2_2_2_2_2_2_2_2_2_2_2_2

New Line.l(r:p1rdm71-p1rlv7522) Units=km Length=0.0679003 bus1=p1rdm71.1.2 bus2=p1rlv7522.1.2 switch=n enabled=y phases=2 Linecode=1P_OH_AL_4/0_Zuzara_0_416_0_2_2_2_2_2_2_2_2_2_2_2_2_2_2_2_2_2_2_2_2_2_2_2_2_2_2_2_2_2

New Line.l(r:p1rdm71-p1rdt33lv) Units=km Length=0.0187795 bus1=p1rdt33lv.1.2 bus2=p1rdm71.1.2 switch=n enabled=y phases=2 Linecode=1P_OH_AL_2/0_Rucina_0_416_0_2_2_2_2_2_2_2_2_2_2_2_2_2_2_2_2_2_2_2_2_2_2_2_2_2_2_2_2_2

New Line.l(r:p1rdm74-p1rlv13685) Units=km Length=0.0534857 bus1=p1rdm74.1.2 bus2=p1rlv13685.1.2 switch=n enabled=y phases=2 Linecode=1P_OH_AL_4/0_Zuzara_0_416_0_2_2_2_2_2_2_2_2_2_2_2_2_2_2_2_2_2_2_2_2_2_2_2_2_2_2_2_2_2

New Line.l(r:p1rdm74-p1rdt33lv) Units=km Length=0.0187696 bus1=p1rdt33lv.1.2 bus2=p1rdm74.1.2 switch=n enabled=y phases=2 Linecode=1P_OH_AL_2/0_Rucina_0_416_0_2_2_2_2_2_2_2_2_2_2_2_2_2_2_2_2_2_2_2_2_2_2_2_2_2_2_2_2_2

New Line.l(r:p1rdt34lv-p1rlv35) Units=km Length=0.0688942 bus1=p1rdt34lv.1.2 bus2=p1rlv35.1.2 switch=n enabled=y phases=2 Linecode=1P_OH_AL_4/0_Zuzara_0_416_0_2_2_2_2_2_2_2_2_2_2_2_2_2_2_2_2_2_2_2_2_2_2_2_2_2_2_2_2_2

New Line.l(r:p1rdt45lv-p1rlv46) Units=km Length=0.0363816 bus1=p1rdt45lv.1.2 bus2=p1rlv46.1.2 switch=n enabled=y phases=2 Linecode=1P_OH_AL_4/0_Zuzara_0_416_0_2_2_2_2_2_2_2_2_2_2_2_2_2_2_2_2_2_2_2_2_2_2_2_2_2_2_2_2_2

New Line.l(r:p1rdt48lv-p1rlv49) Units=km Length=0.0434656 bus1=p1rdt48lv.1.2 bus2=p1rlv49.1.2 switch=n enabled=y phases=2 Linecode=1P_OH_AL_4/0_Zuzara_0_416_0_2_2_2_2_2_2_2_2_2_2_2_2_2_2_2_2_2_2_2_2_2_2_2_2_2_2_2_2_2

New Line.l(r:p1rdt48lv-p1rlv6354) Units=km Length=0.0294663 bus1=p1rdt48lv.1.2 bus2=p1rlv6354.1.2 switch=n enabled=y phases=2 Linecode=1P_OH_AL_4/0_Zuzara_0_416_0_2_2_2_2_2_2_2_2_2_2_2_2_2_2_2_2_2_2_2_2_2_2_2_2_2_2_2_2_2

New Line.l(r:p1rdt48lv-p1rlv8189) Units=km Length=0.0191788 bus1=p1rdt48lv.1.2 bus2=p1rlv8189.1.2 switch=n enabled=y phases=2 Linecode=1P_OH_AL_2/0_Rucina_0_416_0_2_2_2_2_2_2_2_2_2_2_2_2_2_2_2_2_2_2_2_2_2_2_2_2_2_2_2_2_2

New Line.l(r:p1rdt155lv-p1rlv6571) Units=km Length=0.103594 bus1=p1rdt155lv.1.2 bus2=p1rlv6571.1.2 switch=n enabled=y phases=2 Linecode=1P_OH_AL_4/0_Zuzara_0_416_0_2_2_2_2_2_2_2_2_2_2_2_2_2_2_2_2_2_2_2_2_2_2_2_2_2_2_2_2_2

New Line.l(r:p1rdm369-p1rlv160) Units=km Length=0.0829693 bus1=p1rdm369.1.2 bus2=p1rlv160.1.2 switch=n enabled=y phases=2 Linecode=1P_OH_AL_4/0_Zuzara_0_416_0_2_2_2_2_2_2_2_2_2_2_2_2_2_2_2_2_2_2_2_2_2_2_2_2_2_2_2_2_2

New Line.l(r:p1rdm369-p1rlv4044) Units=km Length=0.0502702 bus1=p1rdm369.1.2 bus2=p1rlv4044.1.2 switch=n enabled=y phases=2 Linecode=1P_OH_AL_4/0_Zuzara_0_416_0_2_2_2_2_2_2_2_2_2_2_2_2_2_2_2_2_2_2_2_2_2_2_2_2_2_2_2_2_2

New Line.l(r:p1rdm369-p1rdt155lv) Units=km Length=0.00681966 bus1=p1rdt155lv.1.2 bus2=p1rdm369.1.2 switch=n enabled=y phases=2 Linecode=1P_OH_AL_2/0_Rucina_0_416_0_2_2_2_2_2_2_2_2_2_2_2_2_2_2_2_2_2_2_2_2_2_2_2_2_2_2_2_2_2

New Line.l(r:p1rdm370-p1rlv2591) Units=km Length=0.0709859 bus1=p1rdm370.1.2 bus2=p1rlv2591.1.2 switch=n enabled=y phases=2 Linecode=1P_OH_AL_4/0_Zuzara_0_416_0_2_2_2_2_2_2_2_2_2_2_2_2_2_2_2_2_2_2_2_2_2_2_2_2_2_2_2_2_2

New Line.l(r:p1rdm370-p1rdt155lv) Units=km Length=0.0331724 bus1=p1rdt155lv.1.2 bus2=p1rdm370.1.2 switch=n enabled=y phases=2 Linecode=1P_OH_AL_4/0_Zuzara_0_416_0_2_2_2_2_2_2_2_2_2_2_2_2_2_2_2_2_2_2_2_2_2_2_2_2_2_2_2_2_2

New Line.l(r:p1rdt156lv-p1rlv161) Units=km Length=0.001 bus1=p1rdt156lv.1.2 bus2=p1rlv161.1.2 switch=n enabled=y phases=2 Linecode=1P_OH_AL_4_Periwinkle_0_416_0_2_2_2_2_2_2_2_2_2_2_2_2_2_2_2_2_2_2_2_2_2_2_2_2_2_2_2_2_2

New Line.l(r:p1rdt157lv-p1rlv162) Units=km Length=0.0772405 bus1=p1rdt157lv.1.2 bus2=p1rlv162.1.2 switch=n enabled=y phases=2 Linecode=1P_OH_AL_4/0_Zuzara_0_416_0_2_2_2_2_2_2_2_2_2_2_2_2_2_2_2_2_2_2_2_2_2_2_2_2_2_2_2_2_2

New Line.l(r:p1rdm375-p1rlv13683) Units=km Length=0.021603 bus1=p1rdm375.1.2 bus2=p1rlv13683.1.2 switch=n enabled=y phases=2 Linecode=1P_OH_AL_2/0_Rucina_0_416_0_2_2_2_2_2_2_2_2_2_2_2_2_2_2_2_2_2_2_2_2_2_2_2_2_2_2_2_2_2

New Line.l(r:p1rdm375-p1rdt157lv) Units=km Length=0.0187696 bus1=p1rdt157lv.1.2 bus2=p1rdm375.1.2 switch=n enabled=y phases=2 Linecode=1P_OH_AL_2/0_Rucina_0_416_0_2_2_2_2_2_2_2_2_2_2_2_2_2_2_2_2_2_2_2_2_2_2_2_2_2_2_2_2_2

New Line.l(r:p1rdm376-p1rlv163) Units=km Length=0.04620910000000001 bus1=p1rdm376.1.2 bus2=p1rlv163.1.2 switch=n enabled=y phases=2 Linecode=1P_OH_AL_4/0_Zuzara_0_416_0_2_2_2_2_2_2_2_2_2_2_2_2_2_2_2_2_2_2_2_2_2_2_2_2_2_2_2_2_2

New Line.l(r:p1rdm376-p1rdt158lv) Units=km Length=0.0197852 bus1=p1rdt158lv.1.2 bus2=p1rdm376.1.2 switch=n enabled=y phases=2 Linecode=1P_OH_AL_2/0_Rucina_0_416_0_2_2_2_2_2_2_2_2_2_2_2_2_2_2_2_2_2_2_2_2_2_2_2_2_2_2_2_2_2

New Line.l(r:p1rdm377-p1rlv9781) Units=km Length=0.0275453 bus1=p1rdm377.1.2 bus2=p1rlv9781.1.2 switch=n enabled=y phases=2 Linecode=1P_OH_AL_4/0_Zuzara_0_416_0_2_2_2_2_2_2_2_2_2_2_2_2_2_2_2_2_2_2_2_2_2_2_2_2_2_2_2_2_2

New Line.l(r:p1rdm377-p1rdt158lv) Units=km Length=0.0197866 bus1=p1rdt158lv.1.2 bus2=p1rdm377.1.2 switch=n enabled=y phases=2 Linecode=1P_OH_AL_2/0_Rucina_0_416_0_2_2_2_2_2_2_2_2_2_2_2_2_2_2_2_2_2_2_2_2_2_2_2_2_2_2_2_2_2

New Line.l(r:p1rdt159lv-p1rlv5545) Units=km Length=0.0417715 bus1=p1rdt159lv.1.2 bus2=p1rlv5545.1.2 switch=n enabled=y phases=2 Linecode=1P_OH_AL_4/0_Zuzara_0_416_0_2_2_2_2_2_2_2_2_2_2_2_2_2_2_2_2_2_2_2_2_2_2_2_2_2_2_2_2_2

New Line.l(r:p1rdm378-p1rlv164) Units=km Length=0.0286515 bus1=p1rdm378.1.2 bus2=p1rlv164.1.2 switch=n enabled=y phases=2 Linecode=1P_OH_AL_4/0_Zuzara_0_416_0_2_2_2_2_2_2_2_2_2_2_2_2_2_2_2_2_2_2_2_2_2_2_2_2_2_2_2_2_2

New Line.l(r:p1rdm378-p1rdt159lv) Units=km Length=0.0194847 bus1=p1rdt159lv.1.2 bus2=p1rdm378.1.2 switch=n enabled=y phases=2 Linecode=1P_OH_AL_2/0_Rucina_0_416_0_2_2_2_2_2_2_2_2_2_2_2_2_2_2_2_2_2_2_2_2_2_2_2_2_2_2_2_2_2

New Line.l(r:p1rdt160lv-p1rlv165) Units=km Length=0.114955 bus1=p1rdt160lv.1.2 bus2=p1rlv165.1.2 switch=n enabled=y phases=2 Linecode=1P_OH_AL_4/0_Zuzara_0_416_0_2_2_2_2_2_2_2_2_2_2_2_2_2_2_2_2_2_2_2_2_2_2_2_2_2_2_2_2_2

New Line.l(r:p1rdt160lv-p1rlv1231) Units=km Length=0.06762410000000002 bus1=p1rdt160lv.1.2 bus2=p1rlv1231.1.2 switch=n enabled=y phases=2 Linecode=1P_OH_AL_4/0_Zuzara_0_416_0_2_2_2_2_2_2_2_2_2_2_2_2_2_2_2_2_2_2_2_2_2_2_2_2_2_2_2_2_2

New Line.l(r:p1rdt160lv-p1rlv6083) Units=km Length=0.053379 bus1=p1rdt160lv.1.2 bus2=p1rlv6083.1.2 switch=n enabled=y phases=2 Linecode=1P_OH_AL_4/0_Zuzara_0_416_0_2_2_2_2_2_2_2_2_2_2_2_2_2_2_2_2_2_2_2_2_2_2_2_2_2_2_2_2_2

New Line.l(r:p1rdt160lv-p1rlv12919) Units=km Length=0.07793350000000002 bus1=p1rdt160lv.1.2 bus2=p1rlv12919.1.2 switch=n enabled=y phases=2 Linecode=1P_OH_AL_4/0_Zuzara_0_416_0_2_2_2_2_2_2_2_2_2_2_2_2_2_2_2_2_2_2_2_2_2_2_2_2_2_2_2_2_2

New Line.l(r:p1rdt161lv-p1rlv166) Units=km Length=0.001 bus1=p1rdt161lv.1.2 bus2=p1rlv166.1.2 switch=n enabled=y phases=2 Linecode=1P_OH_AL_4_Periwinkle_0_416_0_2_2_2_2_2_2_2_2_2_2_2_2_2_2_2_2_2_2_2_2_2_2_2_2_2_2_2_2_2

New Line.l(r:p1rdt162lv-p1rlv167) Units=km Length=0.00840415 bus1=p1rdt162lv.1.2 bus2=p1rlv167.1.2 switch=n enabled=y phases=2 Linecode=1P_OH_AL_2/0_Rucina_0_416_0_2_2_2_2_2_2_2_2_2_2_2_2_2_2_2_2_2_2_2_2_2_2_2_2_2_2_2_2_2

New Line.l(r:p1rdt175lv-p1rlv318) Units=km Length=0.0900851 bus1=p1rdt175lv.1.2 bus2=p1rlv318.1.2 switch=n enabled=y phases=2 Linecode=1P_OH_AL_4/0_Zuzara_0_416_0_2_2_2_2_2_2_2_2_2_2_2_2_2_2_2_2_2_2_2_2_2_2_2_2_2_2_2_2_2

New Line.l(r:p1rdt175lv-p1rlv3523) Units=km Length=0.0513842 bus1=p1rdt175lv.1.2 bus2=p1rlv3523.1.2 switch=n enabled=y phases=2 Linecode=1P_OH_AL_4/0_Zuzara_0_416_0_2_2_2_2_2_2_2_2_2_2_2_2_2_2_2_2_2_2_2_2_2_2_2_2_2_2_2_2_2

New Line.l(r:p1rdm418-p1rlv181) Units=km Length=0.133065 bus1=p1rdm418.1.2 bus2=p1rlv181.1.2 switch=n enabled=y phases=2 Linecode=1P_OH_AL_4/0_Zuzara_0_416_0_2_2_2_2_2_2_2_2_2_2_2_2_2_2_2_2_2_2_2_2_2_2_2_2_2_2_2_2_2

New Line.l(r:p1rdm418-p1rlv4772) Units=km Length=0.101447 bus1=p1rdm418.1.2 bus2=p1rlv4772.1.2 switch=n enabled=y phases=2 Linecode=1P_OH_AL_4/0_Zuzara_0_416_0_2_2_2_2_2_2_2_2_2_2_2_2_2_2_2_2_2_2_2_2_2_2_2_2_2_2_2_2_2

New Line.l(r:p1rdm418-p1rdt175lv) Units=km Length=0.0182652 bus1=p1rdt175lv.1.2 bus2=p1rdm418.1.2 switch=n enabled=y phases=2 Linecode=1P_OH_AL_2/0_Rucina_0_416_0_2_2_2_2_2_2_2_2_2_2_2_2_2_2_2_2_2_2_2_2_2_2_2_2_2_2_2_2_2

New Line.l(r:p1rdm422-p1rlv7543) Units=km Length=0.100281 bus1=p1rdm422.1.2 bus2=p1rlv7543.1.2 switch=n enabled=y phases=2 Linecode=1P_OH_AL_4/0_Zuzara_0_416_0_2_2_2_2_2_2_2_2_2_2_2_2_2_2_2_2_2_2_2_2_2_2_2_2_2_2_2_2_2

New Line.l(r:p1rdm423-p1rlv13431) Units=km Length=0.0972021 bus1=p1rdm423.1.2 bus2=p1rlv13431.1.2 switch=n enabled=y phases=2 Linecode=1P_OH_AL_4/0_Zuzara_0_416_0_2_2_2_2_2_2_2_2_2_2_2_2_2_2_2_2_2_2_2_2_2_2_2_2_2_2_2_2_2

New Line.l(r:p1rdm422-p1rdm423) Units=km Length=0.0355908 bus1=p1rdm422.1.2 bus2=p1rdm423.1.2 switch=n enabled=y phases=2 Linecode=1P_OH_AL_4/0_Zuzara_0_416_0_2_2_2_2_2_2_2_2_2_2_2_2_2_2_2_2_2_2_2_2_2_2_2_2_2_2_2_2_2

New Line.l(r:p1rdm422-p1rdt175lv) Units=km Length=0.0182564 bus1=p1rdt175lv.1.2 bus2=p1rdm422.1.2 switch=n enabled=y phases=2 Linecode=1P_OH_AL_2/0_Rucina_0_416_0_2_2_2_2_2_2_2_2_2_2_2_2_2_2_2_2_2_2_2_2_2_2_2_2_2_2_2_2_2

New Line.l(r:p1rdt293lv-p1rlv301) Units=km Length=0.0122635 bus1=p1rdt293lv.1.2 bus2=p1rlv301.1.2 switch=n enabled=y phases=2 Linecode=1P_OH_AL_2/0_Rucina_0_416_0_2_2_2_2_2_2_2_2_2_2_2_2_2_2_2_2_2_2_2_2_2_2_2_2_2_2_2_2_2

New Line.l(r:p1rdt293lv-p1rlv2328) Units=km Length=0.0122635 bus1=p1rdt293lv.1.2 bus2=p1rlv2328.1.2 switch=n enabled=y phases=2 Linecode=1P_OH_AL_2/0_Rucina_0_416_0_2_2_2_2_2_2_2_2_2_2_2_2_2_2_2_2_2_2_2_2_2_2_2_2_2_2_2_2_2

New Line.l(r:p1rdt294lv-p1rlv302) Units=km Length=0.0241212 bus1=p1rdt294lv.1.2 bus2=p1rlv302.1.2 switch=n enabled=y phases=2 Linecode=1P_OH_AL_2/0_Rucina_0_416_0_2_2_2_2_2_2_2_2_2_2_2_2_2_2_2_2_2_2_2_2_2_2_2_2_2_2_2_2_2

New Line.l(r:p1rdt294lv-p1rlv4478) Units=km Length=0.0495661 bus1=p1rdt294lv.1.2 bus2=p1rlv4478.1.2 switch=n enabled=y phases=2 Linecode=1P_OH_AL_4/0_Zuzara_0_416_0_2_2_2_2_2_2_2_2_2_2_2_2_2_2_2_2_2_2_2_2_2_2_2_2_2_2_2_2_2

New Line.l(r:p1rdt294lv-p1rlv11703) Units=km Length=0.00807112 bus1=p1rdt294lv.1.2 bus2=p1rlv11703.1.2 switch=n enabled=y phases=2 Linecode=1P_OH_AL_2/0_Rucina_0_416_0_2_2_2_2_2_2_2_2_2_2_2_2_2_2_2_2_2_2_2_2_2_2_2_2_2_2_2_2_2

New Line.l(r:p1rdm695-p1rlv13807) Units=km Length=0.0584179 bus1=p1rdm695.1.2 bus2=p1rlv13807.1.2 switch=n enabled=y phases=2 Linecode=1P_OH_AL_4/0_Zuzara_0_416_0_2_2_2_2_2_2_2_2_2_2_2_2_2_2_2_2_2_2_2_2_2_2_2_2_2_2_2_2_2

New Line.l(r:p1rdm695-p1rdt294lv) Units=km Length=0.12364 bus1=p1rdt294lv.1.2 bus2=p1rdm695.1.2 switch=n enabled=y phases=2 Linecode=1P_OH_AL_4/0_Zuzara_0_416_0_2_2_2_2_2_2_2_2_2_2_2_2_2_2_2_2_2_2_2_2_2_2_2_2_2_2_2_2_2

New Line.l(r:p1rdt295lv-p1rlv303) Units=km Length=0.00449998 bus1=p1rdt295lv.1.2 bus2=p1rlv303.1.2 switch=n enabled=y phases=2 Linecode=1P_OH_AL_2/0_Rucina_0_416_0_2_2_2_2_2_2_2_2_2_2_2_2_2_2_2_2_2_2_2_2_2_2_2_2_2_2_2_2_2

New Line.l(r:p1rdt295lv-p1rlv11271) Units=km Length=0.0287048 bus1=p1rdt295lv.1.2 bus2=p1rlv11271.1.2 switch=n enabled=y phases=2 Linecode=1P_OH_AL_4/0_Zuzara_0_416_0_2_2_2_2_2_2_2_2_2_2_2_2_2_2_2_2_2_2_2_2_2_2_2_2_2_2_2_2_2

New Line.l(r:p1rdt295lv-p1rlv13290) Units=km Length=0.0320688 bus1=p1rdt295lv.1.2 bus2=p1rlv13290.1.2 switch=n enabled=y phases=2 Linecode=1P_OH_AL_4/0_Zuzara_0_416_0_2_2_2_2_2_2_2_2_2_2_2_2_2_2_2_2_2_2_2_2_2_2_2_2_2_2_2_2_2

New Line.l(r:p1rdt417lv-p1rlv10585) Units=km Length=0.024282800000000004 bus1=p1rdt417lv.1.2 bus2=p1rlv10585.1.2 switch=n enabled=y phases=2 Linecode=1P_OH_AL_2/0_Rucina_0_416_0_2_2_2_2_2_2_2_2_2_2_2_2_2_2_2_2_2_2_2_2_2_2_2_2_2_2_2_2_2

New Line.l(r:p1rdt417lv-p1rlv13546) Units=km Length=0.05470150000000001 bus1=p1rdt417lv.1.2 bus2=p1rlv13546.1.2 switch=n enabled=y phases=2 Linecode=1P_OH_AL_4/0_Zuzara_0_416_0_2_2_2_2_2_2_2_2_2_2_2_2_2_2_2_2_2_2_2_2_2_2_2_2_2_2_2_2_2

New Line.l(r:p1rdm981-p1rlv426) Units=km Length=0.0209329 bus1=p1rdm981.1.2 bus2=p1rlv426.1.2 switch=n enabled=y phases=2 Linecode=1P_OH_AL_2/0_Rucina_0_416_0_2_2_2_2_2_2_2_2_2_2_2_2_2_2_2_2_2_2_2_2_2_2_2_2_2_2_2_2_2

New Line.l(r:p1rdm981-p1rdt417lv) Units=km Length=0.017349300000000005 bus1=p1rdt417lv.1.2 bus2=p1rdm981.1.2 switch=n enabled=y phases=2 Linecode=1P_OH_AL_2/0_Rucina_0_416_0_2_2_2_2_2_2_2_2_2_2_2_2_2_2_2_2_2_2_2_2_2_2_2_2_2_2_2_2_2

New Line.l(r:p1rdt419lv-p1rlv428) Units=km Length=0.0199292 bus1=p1rdt419lv.1.2 bus2=p1rlv428.1.2 switch=n enabled=y phases=2 Linecode=1P_OH_AL_2/0_Rucina_0_416_0_2_2_2_2_2_2_2_2_2_2_2_2_2_2_2_2_2_2_2_2_2_2_2_2_2_2_2_2_2

New Line.l(r:p1rdt419lv-p1rlv10445) Units=km Length=0.0199292 bus1=p1rdt419lv.1.2 bus2=p1rlv10445.1.2 switch=n enabled=y phases=2 Linecode=1P_OH_AL_2/0_Rucina_0_416_0_2_2_2_2_2_2_2_2_2_2_2_2_2_2_2_2_2_2_2_2_2_2_2_2_2_2_2_2_2

New Line.l(r:p1rdt420lv-p1rlv429) Units=km Length=0.001 bus1=p1rdt420lv.1.2 bus2=p1rlv429.1.2 switch=n enabled=y phases=2 Linecode=1P_OH_AL_4_Periwinkle_0_416_0_2_2_2_2_2_2_2_2_2_2_2_2_2_2_2_2_2_2_2_2_2_2_2_2_2_2_2_2_2

New Line.l(r:p1rdm990-p1rlv430) Units=km Length=0.027835 bus1=p1rdm990.1.2 bus2=p1rlv430.1.2 switch=n enabled=y phases=2 Linecode=1P_OH_AL_4/0_Zuzara_0_416_0_2_2_2_2_2_2_2_2_2_2_2_2_2_2_2_2_2_2_2_2_2_2_2_2_2_2_2_2_2

New Line.l(r:p1rdm990-p1rlv11407) Units=km Length=0.07210990000000002 bus1=p1rdm990.1.2 bus2=p1rlv11407.1.2 switch=n enabled=y phases=2 Linecode=1P_OH_AL_4/0_Zuzara_0_416_0_2_2_2_2_2_2_2_2_2_2_2_2_2_2_2_2_2_2_2_2_2_2_2_2_2_2_2_2_2

New Line.l(r:p1rdm990-p1rdt421lv) Units=km Length=0.0194524 bus1=p1rdt421lv.1.2 bus2=p1rdm990.1.2 switch=n enabled=y phases=2 Linecode=1P_OH_AL_2/0_Rucina_0_416_0_2_2_2_2_2_2_2_2_2_2_2_2_2_2_2_2_2_2_2_2_2_2_2_2_2_2_2_2_2

New Line.l(r:p1rdm991-p1rlv4479) Units=km Length=0.0900214 bus1=p1rdm991.1.2 bus2=p1rlv4479.1.2 switch=n enabled=y phases=2 Linecode=1P_OH_AL_4/0_Zuzara_0_416_0_2_2_2_2_2_2_2_2_2_2_2_2_2_2_2_2_2_2_2_2_2_2_2_2_2_2_2_2_2

New Line.l(r:p1rdm991-p1rlv8433) Units=km Length=0.0540432 bus1=p1rdm991.1.2 bus2=p1rlv8433.1.2 switch=n enabled=y phases=2 Linecode=1P_OH_AL_4/0_Zuzara_0_416_0_2_2_2_2_2_2_2_2_2_2_2_2_2_2_2_2_2_2_2_2_2_2_2_2_2_2_2_2_2

New Line.l(r:p1rdm991-p1rdt421lv) Units=km Length=0.0194524 bus1=p1rdt421lv.1.2 bus2=p1rdm991.1.2 switch=n enabled=y phases=2 Linecode=1P_OH_AL_2/0_Rucina_0_416_0_2_2_2_2_2_2_2_2_2_2_2_2_2_2_2_2_2_2_2_2_2_2_2_2_2_2_2_2_2

New Line.l(r:p1rdt422lv-p1rlv431) Units=km Length=0.039434 bus1=p1rdt422lv.1.2 bus2=p1rlv431.1.2 switch=n enabled=y phases=2 Linecode=1P_OH_AL_4/0_Zuzara_0_416_0_2_2_2_2_2_2_2_2_2_2_2_2_2_2_2_2_2_2_2_2_2_2_2_2_2_2_2_2_2

New Line.l(r:p1rdt422lv-p1rlv13031) Units=km Length=0.105451 bus1=p1rdt422lv.1.2 bus2=p1rlv13031.1.2 switch=n enabled=y phases=2 Linecode=1P_OH_AL_4/0_Zuzara_0_416_0_2_2_2_2_2_2_2_2_2_2_2_2_2_2_2_2_2_2_2_2_2_2_2_2_2_2_2_2_2

New Line.l(r:p1rdt423lv-p1rlv432) Units=km Length=0.0263715 bus1=p1rdt423lv.1.2 bus2=p1rlv432.1.2 switch=n enabled=y phases=2 Linecode=1P_OH_AL_2/0_Rucina_0_416_0_2_2_2_2_2_2_2_2_2_2_2_2_2_2_2_2_2_2_2_2_2_2_2_2_2_2_2_2_2

New Line.l(r:p1rdt423lv-p1rlv13032) Units=km Length=0.0687867 bus1=p1rdt423lv.1.2 bus2=p1rlv13032.1.2 switch=n enabled=y phases=2 Linecode=1P_OH_AL_4/0_Zuzara_0_416_0_2_2_2_2_2_2_2_2_2_2_2_2_2_2_2_2_2_2_2_2_2_2_2_2_2_2_2_2_2

New Line.l(r:p1rdt424lv-p1rlv433) Units=km Length=0.022171500000000004 bus1=p1rdt424lv.1.2 bus2=p1rlv433.1.2 switch=n enabled=y phases=2 Linecode=1P_OH_AL_2/0_Rucina_0_416_0_2_2_2_2_2_2_2_2_2_2_2_2_2_2_2_2_2_2_2_2_2_2_2_2_2_2_2_2_2

New Line.l(r:p1rdt424lv-p1rlv10999) Units=km Length=0.022171500000000004 bus1=p1rdt424lv.1.2 bus2=p1rlv10999.1.2 switch=n enabled=y phases=2 Linecode=1P_OH_AL_2/0_Rucina_0_416_0_2_2_2_2_2_2_2_2_2_2_2_2_2_2_2_2_2_2_2_2_2_2_2_2_2_2_2_2_2

New Line.l(r:p1rdt425lv-p1rlv434) Units=km Length=0.001 bus1=p1rdt425lv.1.2 bus2=p1rlv434.1.2 switch=n enabled=y phases=2 Linecode=1P_OH_AL_4_Periwinkle_0_416_0_2_2_2_2_2_2_2_2_2_2_2_2_2_2_2_2_2_2_2_2_2_2_2_2_2_2_2_2_2

New Line.l(r:p1rdt426lv-p1rlv435) Units=km Length=0.0561751 bus1=p1rdt426lv.1.2 bus2=p1rlv435.1.2 switch=n enabled=y phases=2 Linecode=1P_OH_AL_4/0_Zuzara_0_416_0_2_2_2_2_2_2_2_2_2_2_2_2_2_2_2_2_2_2_2_2_2_2_2_2_2_2_2_2_2

New Line.l(r:p1rdt426lv-p1rlv990) Units=km Length=0.0856333 bus1=p1rdt426lv.1.2 bus2=p1rlv990.1.2 switch=n enabled=y phases=2 Linecode=1P_OH_AL_4/0_Zuzara_0_416_0_2_2_2_2_2_2_2_2_2_2_2_2_2_2_2_2_2_2_2_2_2_2_2_2_2_2_2_2_2

New Line.l(r:p1rdt426lv-p1rlv1385) Units=km Length=0.0455756 bus1=p1rdt426lv.1.2 bus2=p1rlv1385.1.2 switch=n enabled=y phases=2 Linecode=1P_OH_AL_4/0_Zuzara_0_416_0_2_2_2_2_2_2_2_2_2_2_2_2_2_2_2_2_2_2_2_2_2_2_2_2_2_2_2_2_2

New Line.l(r:p1rdt426lv-p1rlv7371) Units=km Length=0.07498580000000002 bus1=p1rdt426lv.1.2 bus2=p1rlv7371.1.2 switch=n enabled=y phases=2 Linecode=1P_OH_AL_4/0_Zuzara_0_416_0_2_2_2_2_2_2_2_2_2_2_2_2_2_2_2_2_2_2_2_2_2_2_2_2_2_2_2_2_2

New Line.l(r:p1rdt426lv-p1rlv9643) Units=km Length=0.043889 bus1=p1rdt426lv.1.2 bus2=p1rlv9643.1.2 switch=n enabled=y phases=2 Linecode=1P_OH_AL_4/0_Zuzara_0_416_0_2_2_2_2_2_2_2_2_2_2_2_2_2_2_2_2_2_2_2_2_2_2_2_2_2_2_2_2_2

New Line.l(r:p1rdt432lv-p1rlv442) Units=km Length=0.0974596 bus1=p1rdt432lv.1.2 bus2=p1rlv442.1.2 switch=n enabled=y phases=2 Linecode=1P_OH_AL_4/0_Zuzara_0_416_0_2_2_2_2_2_2_2_2_2_2_2_2_2_2_2_2_2_2_2_2_2_2_2_2_2_2_2_2_2

New Line.l(r:p1rdm1022-p1rlv3672) Units=km Length=0.0767834 bus1=p1rdm1022.1.2 bus2=p1rlv3672.1.2 switch=n enabled=y phases=2 Linecode=1P_OH_AL_4/0_Zuzara_0_416_0_2_2_2_2_2_2_2_2_2_2_2_2_2_2_2_2_2_2_2_2_2_2_2_2_2_2_2_2_2

New Line.l(r:p1rdm1022-p1rdt432lv) Units=km Length=0.0169745 bus1=p1rdt432lv.1.2 bus2=p1rdm1022.1.2 switch=n enabled=y phases=2 Linecode=1P_OH_AL_2/0_Rucina_0_416_0_2_2_2_2_2_2_2_2_2_2_2_2_2_2_2_2_2_2_2_2_2_2_2_2_2_2_2_2_2

New Line.l(r:p1rdt433lv-p1rlv443) Units=km Length=0.0664969 bus1=p1rdt433lv.1.2 bus2=p1rlv443.1.2 switch=n enabled=y phases=2 Linecode=1P_OH_AL_4/0_Zuzara_0_416_0_2_2_2_2_2_2_2_2_2_2_2_2_2_2_2_2_2_2_2_2_2_2_2_2_2_2_2_2_2

New Line.l(r:p1rdt540lv-p1rlv554) Units=km Length=0.0416854 bus1=p1rdt540lv.1.2 bus2=p1rlv554.1.2 switch=n enabled=y phases=2 Linecode=1P_OH_AL_4/0_Zuzara_0_416_0_2_2_2_2_2_2_2_2_2_2_2_2_2_2_2_2_2_2_2_2_2_2_2_2_2_2_2_2_2

New Line.l(r:p1rdt540lv-p1rlv3237) Units=km Length=0.0808186 bus1=p1rdt540lv.1.2 bus2=p1rlv3237.1.2 switch=n enabled=y phases=2 Linecode=1P_OH_AL_4/0_Zuzara_0_416_0_2_2_2_2_2_2_2_2_2_2_2_2_2_2_2_2_2_2_2_2_2_2_2_2_2_2_2_2_2

New Line.l(r:p1rdt540lv-p1rlv8301) Units=km Length=0.0511311 bus1=p1rdt540lv.1.2 bus2=p1rlv8301.1.2 switch=n enabled=y phases=2 Linecode=1P_OH_AL_4/0_Zuzara_0_416_0_2_2_2_2_2_2_2_2_2_2_2_2_2_2_2_2_2_2_2_2_2_2_2_2_2_2_2_2_2

New Line.l(r:p1rdt540lv-p1rlv10996) Units=km Length=0.0419613 bus1=p1rdt540lv.1.2 bus2=p1rlv10996.1.2 switch=n enabled=y phases=2 Linecode=1P_OH_AL_4/0_Zuzara_0_416_0_2_2_2_2_2_2_2_2_2_2_2_2_2_2_2_2_2_2_2_2_2_2_2_2_2_2_2_2_2

New Line.l(r:p1rdt540lv-p1rlv13160) Units=km Length=0.0349589 bus1=p1rdt540lv.1.2 bus2=p1rlv13160.1.2 switch=n enabled=y phases=2 Linecode=1P_OH_AL_4/0_Zuzara_0_416_0_2_2_2_2_2_2_2_2_2_2_2_2_2_2_2_2_2_2_2_2_2_2_2_2_2_2_2_2_2

New Line.l(r:p1rdt541lv-p1rlv555) Units=km Length=0.0306012 bus1=p1rdt541lv.1.2 bus2=p1rlv555.1.2 switch=n enabled=y phases=2 Linecode=1P_OH_AL_4/0_Zuzara_0_416_0_2_2_2_2_2_2_2_2_2_2_2_2_2_2_2_2_2_2_2_2_2_2_2_2_2_2_2_2_2

New Line.l(r:p1rdt542lv-p1rlv556) Units=km Length=0.0493962 bus1=p1rdt542lv.1.2 bus2=p1rlv556.1.2 switch=n enabled=y phases=2 Linecode=1P_OH_AL_4/0_Zuzara_0_416_0_2_2_2_2_2_2_2_2_2_2_2_2_2_2_2_2_2_2_2_2_2_2_2_2_2_2_2_2_2

New Line.l(r:p1rdt671lv-p1rlv695) Units=km Length=0.0335101 bus1=p1rdt671lv.1.2 bus2=p1rlv695.1.2 switch=n enabled=y phases=2 Linecode=1P_OH_AL_4/0_Zuzara_0_416_0_2_2_2_2_2_2_2_2_2_2_2_2_2_2_2_2_2_2_2_2_2_2_2_2_2_2_2_2_2

New Line.l(r:p1rdt671lv-p1rlv4754) Units=km Length=0.0335101 bus1=p1rdt671lv.1.2 bus2=p1rlv4754.1.2 switch=n enabled=y phases=2 Linecode=1P_OH_AL_4/0_Zuzara_0_416_0_2_2_2_2_2_2_2_2_2_2_2_2_2_2_2_2_2_2_2_2_2_2_2_2_2_2_2_2_2

New Line.l(r:p1rdt672lv-p1rlv696) Units=km Length=0.0880527 bus1=p1rdt672lv.1.2 bus2=p1rlv696.1.2 switch=n enabled=y phases=2 Linecode=1P_OH_AL_4/0_Zuzara_0_416_0_2_2_2_2_2_2_2_2_2_2_2_2_2_2_2_2_2_2_2_2_2_2_2_2_2_2_2_2_2

New Line.l(r:p1rdm1549-p1rlv3914) Units=km Length=0.0850357 bus1=p1rdm1549.1.2 bus2=p1rlv3914.1.2 switch=n enabled=y phases=2 Linecode=1P_OH_AL_4/0_Zuzara_0_416_0_2_2_2_2_2_2_2_2_2_2_2_2_2_2_2_2_2_2_2_2_2_2_2_2_2_2_2_2_2

New Line.l(r:p1rdm1549-p1rdt672lv) Units=km Length=0.0197852 bus1=p1rdt672lv.1.2 bus2=p1rdm1549.1.2 switch=n enabled=y phases=2 Linecode=1P_OH_AL_2/0_Rucina_0_416_0_2_2_2_2_2_2_2_2_2_2_2_2_2_2_2_2_2_2_2_2_2_2_2_2_2_2_2_2_2

New Line.l(r:p1rdm1550-p1rlv697) Units=km Length=0.0783815 bus1=p1rdm1550.1.2 bus2=p1rlv697.1.2 switch=n enabled=y phases=2 Linecode=1P_OH_AL_4/0_Zuzara_0_416_0_2_2_2_2_2_2_2_2_2_2_2_2_2_2_2_2_2_2_2_2_2_2_2_2_2_2_2_2_2

New Line.l(r:p1rdm1550-p1rlv5814) Units=km Length=0.0212874 bus1=p1rdm1550.1.2 bus2=p1rlv5814.1.2 switch=n enabled=y phases=2 Linecode=1P_OH_AL_2/0_Rucina_0_416_0_2_2_2_2_2_2_2_2_2_2_2_2_2_2_2_2_2_2_2_2_2_2_2_2_2_2_2_2_2

New Line.l(r:p1rdm1550-p1rdt673lv) Units=km Length=0.0187809 bus1=p1rdt673lv.1.2 bus2=p1rdm1550.1.2 switch=n enabled=y phases=2 Linecode=1P_OH_AL_2/0_Rucina_0_416_0_2_2_2_2_2_2_2_2_2_2_2_2_2_2_2_2_2_2_2_2_2_2_2_2_2_2_2_2_2

New Line.l(r:p1rdm1551-p1rlv2726) Units=km Length=0.032817 bus1=p1rdm1551.1.2 bus2=p1rlv2726.1.2 switch=n enabled=y phases=2 Linecode=1P_OH_AL_4/0_Zuzara_0_416_0_2_2_2_2_2_2_2_2_2_2_2_2_2_2_2_2_2_2_2_2_2_2_2_2_2_2_2_2_2

New Line.l(r:p1rdm1551-p1rlv11706) Units=km Length=0.0586204 bus1=p1rdm1551.1.2 bus2=p1rlv11706.1.2 switch=n enabled=y phases=2 Linecode=1P_OH_AL_4/0_Zuzara_0_416_0_2_2_2_2_2_2_2_2_2_2_2_2_2_2_2_2_2_2_2_2_2_2_2_2_2_2_2_2_2

New Line.l(r:p1rdm1551-p1rdt673lv) Units=km Length=0.0187795 bus1=p1rdt673lv.1.2 bus2=p1rdm1551.1.2 switch=n enabled=y phases=2 Linecode=1P_OH_AL_2/0_Rucina_0_416_0_2_2_2_2_2_2_2_2_2_2_2_2_2_2_2_2_2_2_2_2_2_2_2_2_2_2_2_2_2

New Line.l(r:p1rdt674lv-p1rlv988) Units=km Length=0.0290125 bus1=p1rdt674lv.1.2 bus2=p1rlv988.1.2 switch=n enabled=y phases=2 Linecode=1P_OH_AL_4/0_Zuzara_0_416_0_2_2_2_2_2_2_2_2_2_2_2_2_2_2_2_2_2_2_2_2_2_2_2_2_2_2_2_2_2

New Line.l(r:p1rdm1554-p1rlv698) Units=km Length=0.0294681 bus1=p1rdm1554.1.2 bus2=p1rlv698.1.2 switch=n enabled=y phases=2 Linecode=1P_OH_AL_4/0_Zuzara_0_416_0_2_2_2_2_2_2_2_2_2_2_2_2_2_2_2_2_2_2_2_2_2_2_2_2_2_2_2_2_2

New Line.l(r:p1rdm1554-p1rdt674lv) Units=km Length=0.0389677 bus1=p1rdt674lv.1.2 bus2=p1rdm1554.1.2 switch=n enabled=y phases=2 Linecode=1P_OH_AL_4/0_Zuzara_0_416_0_2_2_2_2_2_2_2_2_2_2_2_2_2_2_2_2_2_2_2_2_2_2_2_2_2_2_2_2_2

New Line.l(r:p1rdm1556-p1rlv5030) Units=km Length=0.05108130000000001 bus1=p1rdm1556.1.2 bus2=p1rlv5030.1.2 switch=n enabled=y phases=2 Linecode=1P_OH_AL_4/0_Zuzara_0_416_0_2_2_2_2_2_2_2_2_2_2_2_2_2_2_2_2_2_2_2_2_2_2_2_2_2_2_2_2_2

New Line.l(r:p1rdm1557-p1rlv6205) Units=km Length=0.050850400000000004 bus1=p1rdm1557.1.2 bus2=p1rlv6205.1.2 switch=n enabled=y phases=2 Linecode=1P_OH_AL_4/0_Zuzara_0_416_0_2_2_2_2_2_2_2_2_2_2_2_2_2_2_2_2_2_2_2_2_2_2_2_2_2_2_2_2_2

New Line.l(r:p1rdm1556-p1rdm1557) Units=km Length=0.0194831 bus1=p1rdm1556.1.2 bus2=p1rdm1557.1.2 switch=n enabled=y phases=2 Linecode=1P_OH_AL_2/0_Rucina_0_416_0_2_2_2_2_2_2_2_2_2_2_2_2_2_2_2_2_2_2_2_2_2_2_2_2_2_2_2_2_2

New Line.l(r:p1rdm1556-p1rdt674lv) Units=km Length=0.0194847 bus1=p1rdt674lv.1.2 bus2=p1rdm1556.1.2 switch=n enabled=y phases=2 Linecode=1P_OH_AL_2/0_Rucina_0_416_0_2_2_2_2_2_2_2_2_2_2_2_2_2_2_2_2_2_2_2_2_2_2_2_2_2_2_2_2_2

New Line.l(r:p1rdt693lv-p1rlv723) Units=km Length=0.0175764 bus1=p1rdt693lv.1.2 bus2=p1rlv723.1.2 switch=n enabled=y phases=2 Linecode=1P_OH_AL_2/0_Rucina_0_416_0_2_2_2_2_2_2_2_2_2_2_2_2_2_2_2_2_2_2_2_2_2_2_2_2_2_2_2_2_2

New Line.l(r:p1rdt693lv-p1rlv1409) Units=km Length=0.0303237 bus1=p1rdt693lv.1.2 bus2=p1rlv1409.1.2 switch=n enabled=y phases=2 Linecode=1P_OH_AL_4/0_Zuzara_0_416_0_2_2_2_2_2_2_2_2_2_2_2_2_2_2_2_2_2_2_2_2_2_2_2_2_2_2_2_2_2

New Line.l(r:p1rdt693lv-p1rlv5168) Units=km Length=0.0149554 bus1=p1rdt693lv.1.2 bus2=p1rlv5168.1.2 switch=n enabled=y phases=2 Linecode=1P_OH_AL_2/0_Rucina_0_416_0_2_2_2_2_2_2_2_2_2_2_2_2_2_2_2_2_2_2_2_2_2_2_2_2_2_2_2_2_2

New Line.l(r:p1rdt817lv-p1rlv853) Units=km Length=0.0276459 bus1=p1rdt817lv.1.2 bus2=p1rlv853.1.2 switch=n enabled=y phases=2 Linecode=1P_OH_AL_4/0_Zuzara_0_416_0_2_2_2_2_2_2_2_2_2_2_2_2_2_2_2_2_2_2_2_2_2_2_2_2_2_2_2_2_2

New Line.l(r:p1rdt817lv-p1rlv6841) Units=km Length=0.0276459 bus1=p1rdt817lv.1.2 bus2=p1rlv6841.1.2 switch=n enabled=y phases=2 Linecode=1P_OH_AL_4/0_Zuzara_0_416_0_2_2_2_2_2_2_2_2_2_2_2_2_2_2_2_2_2_2_2_2_2_2_2_2_2_2_2_2_2

New Line.l(r:p1rdt818lv-p1rlv854) Units=km Length=0.0420429 bus1=p1rdt818lv.1.2 bus2=p1rlv854.1.2 switch=n enabled=y phases=2 Linecode=1P_OH_AL_4/0_Zuzara_0_416_0_2_2_2_2_2_2_2_2_2_2_2_2_2_2_2_2_2_2_2_2_2_2_2_2_2_2_2_2_2

New Line.l(r:p1rdt818lv-p1rlv13292) Units=km Length=0.038808 bus1=p1rdt818lv.1.2 bus2=p1rlv13292.1.2 switch=n enabled=y phases=2 Linecode=1P_OH_AL_4/0_Zuzara_0_416_0_2_2_2_2_2_2_2_2_2_2_2_2_2_2_2_2_2_2_2_2_2_2_2_2_2_2_2_2_2

New Line.l(r:p1rdt829lv-p1rlv866) Units=km Length=0.001 bus1=p1rdt829lv.1.2 bus2=p1rlv866.1.2 switch=n enabled=y phases=2 Linecode=1P_OH_AL_4_Periwinkle_0_416_0_2_2_2_2_2_2_2_2_2_2_2_2_2_2_2_2_2_2_2_2_2_2_2_2_2_2_2_2_2

New Line.l(r:p1rdt942lv-p1rlv989) Units=km Length=0.001 bus1=p1rdt942lv.1.2 bus2=p1rlv989.1.2 switch=n enabled=y phases=2 Linecode=1P_OH_AL_4_Periwinkle_0_416_0_2_2_2_2_2_2_2_2_2_2_2_2_2_2_2_2_2_2_2_2_2_2_2_2_2_2_2_2_2

New Line.l(r:p1rdm2126-p1rlv991) Units=km Length=0.0265554 bus1=p1rdm2126.1.2 bus2=p1rlv991.1.2 switch=n enabled=y phases=2 Linecode=1P_OH_AL_2/0_Rucina_0_416_0_2_2_2_2_2_2_2_2_2_2_2_2_2_2_2_2_2_2_2_2_2_2_2_2_2_2_2_2_2

New Line.l(r:p1rdm2126-p1rdt943lv) Units=km Length=0.0390371 bus1=p1rdt943lv.1.2 bus2=p1rdm2126.1.2 switch=n enabled=y phases=2 Linecode=1P_OH_AL_4/0_Zuzara_0_416_0_2_2_2_2_2_2_2_2_2_2_2_2_2_2_2_2_2_2_2_2_2_2_2_2_2_2_2_2_2

New Line.l(r:p1rdm2127-p1rlv10864) Units=km Length=0.0299466 bus1=p1rdm2127.1.2 bus2=p1rlv10864.1.2 switch=n enabled=y phases=2 Linecode=1P_OH_AL_4/0_Zuzara_0_416_0_2_2_2_2_2_2_2_2_2_2_2_2_2_2_2_2_2_2_2_2_2_2_2_2_2_2_2_2_2

New Line.l(r:p1rdm2127-p1rdt943lv) Units=km Length=0.019519300000000003 bus1=p1rdt943lv.1.2 bus2=p1rdm2127.1.2 switch=n enabled=y phases=2 Linecode=1P_OH_AL_2/0_Rucina_0_416_0_2_2_2_2_2_2_2_2_2_2_2_2_2_2_2_2_2_2_2_2_2_2_2_2_2_2_2_2_2

New Line.l(r:p1rdt958lv-p1rlv13818) Units=km Length=0.0222223 bus1=p1rdt958lv.1.2 bus2=p1rlv13818.1.2 switch=n enabled=y phases=2 Linecode=1P_OH_AL_2/0_Rucina_0_416_0_2_2_2_2_2_2_2_2_2_2_2_2_2_2_2_2_2_2_2_2_2_2_2_2_2_2_2_2_2

New Line.l(r:p1rdm2170-p1rlv7677) Units=km Length=0.00885931 bus1=p1rdm2170.1.2 bus2=p1rlv7677.1.2 switch=n enabled=y phases=2 Linecode=1P_OH_AL_2/0_Rucina_0_416_0_2_2_2_2_2_2_2_2_2_2_2_2_2_2_2_2_2_2_2_2_2_2_2_2_2_2_2_2_2

New Line.l(r:p1rdm2170-p1rdt958lv) Units=km Length=0.028141 bus1=p1rdt958lv.1.2 bus2=p1rdm2170.1.2 switch=n enabled=y phases=2 Linecode=1P_OH_AL_4/0_Zuzara_0_416_0_2_2_2_2_2_2_2_2_2_2_2_2_2_2_2_2_2_2_2_2_2_2_2_2_2_2_2_2_2

New Line.l(r:p1rdm2171-p1rlv11166) Units=km Length=0.0108501 bus1=p1rdm2171.1.2 bus2=p1rlv11166.1.2 switch=n enabled=y phases=2 Linecode=1P_OH_AL_2/0_Rucina_0_416_0_2_2_2_2_2_2_2_2_2_2_2_2_2_2_2_2_2_2_2_2_2_2_2_2_2_2_2_2_2

New Line.l(r:p1rdm2169-p1rlv1006) Units=km Length=0.0311219 bus1=p1rdm2169.1.2 bus2=p1rlv1006.1.2 switch=n enabled=y phases=2 Linecode=1P_OH_AL_4/0_Zuzara_0_416_0_2_2_2_2_2_2_2_2_2_2_2_2_2_2_2_2_2_2_2_2_2_2_2_2_2_2_2_2_2

New Line.l(r:p1rdm2169-p1rdm2171) Units=km Length=0.0182718 bus1=p1rdm2171.1.2 bus2=p1rdm2169.1.2 switch=n enabled=y phases=2 Linecode=1P_OH_AL_2/0_Rucina_0_416_0_2_2_2_2_2_2_2_2_2_2_2_2_2_2_2_2_2_2_2_2_2_2_2_2_2_2_2_2_2

New Line.l(r:p1rdm2171-p1rdt958lv) Units=km Length=0.012831400000000001 bus1=p1rdt958lv.1.2 bus2=p1rdm2171.1.2 switch=n enabled=y phases=2 Linecode=1P_OH_AL_2/0_Rucina_0_416_0_2_2_2_2_2_2_2_2_2_2_2_2_2_2_2_2_2_2_2_2_2_2_2_2_2_2_2_2_2

New Line.l(r:p1rdt959lv-p1rlv1007) Units=km Length=0.07963 bus1=p1rdt959lv.1.2 bus2=p1rlv1007.1.2 switch=n enabled=y phases=2 Linecode=1P_OH_AL_4/0_Zuzara_0_416_0_2_2_2_2_2_2_2_2_2_2_2_2_2_2_2_2_2_2_2_2_2_2_2_2_2_2_2_2_2

New Line.l(r:p1rdm2174-p1rlv7385) Units=km Length=0.0794857 bus1=p1rdm2174.1.2 bus2=p1rlv7385.1.2 switch=n enabled=y phases=2 Linecode=1P_OH_AL_4/0_Zuzara_0_416_0_2_2_2_2_2_2_2_2_2_2_2_2_2_2_2_2_2_2_2_2_2_2_2_2_2_2_2_2_2

New Line.l(r:p1rdm2174-p1rdt959lv) Units=km Length=0.0198203 bus1=p1rdt959lv.1.2 bus2=p1rdm2174.1.2 switch=n enabled=y phases=2 Linecode=1P_OH_AL_2/0_Rucina_0_416_0_2_2_2_2_2_2_2_2_2_2_2_2_2_2_2_2_2_2_2_2_2_2_2_2_2_2_2_2_2

New Line.l(r:p1rdt1051lv-p1rlv1110) Units=km Length=0.0218786 bus1=p1rdt1051lv.1.2 bus2=p1rlv1110.1.2 switch=n enabled=y phases=2 Linecode=1P_OH_AL_2/0_Rucina_0_416_0_2_2_2_2_2_2_2_2_2_2_2_2_2_2_2_2_2_2_2_2_2_2_2_2_2_2_2_2_2

New Line.l(r:p1rdt1051lv-p1rlv4045) Units=km Length=0.0210068 bus1=p1rdt1051lv.1.2 bus2=p1rlv4045.1.2 switch=n enabled=y phases=2 Linecode=1P_OH_AL_2/0_Rucina_0_416_0_2_2_2_2_2_2_2_2_2_2_2_2_2_2_2_2_2_2_2_2_2_2_2_2_2_2_2_2_2

New Line.l(r:p1rdt1051lv-p1rlv12918) Units=km Length=0.0417265 bus1=p1rdt1051lv.1.2 bus2=p1rlv12918.1.2 switch=n enabled=y phases=2 Linecode=1P_OH_AL_4/0_Zuzara_0_416_0_2_2_2_2_2_2_2_2_2_2_2_2_2_2_2_2_2_2_2_2_2_2_2_2_2_2_2_2_2
