New Line.l(r:p1udt1045lv-p1ulv1066) Units=km Length=0.0195941 bus1=p1udt1045lv.1.2 bus2=p1ulv1066.1.2 switch=n enabled=y phases=2 Linecode=1P_UG_AL_1/0_Brenau_0_416_0_2_2_2_2

New Line.l(r:p1udt1047lv-p1ulv1068) Units=km Length=0.0543128 bus1=p1udt1047lv.1.2 bus2=p1ulv1068.1.2 switch=n enabled=y phases=2 Linecode=1P_OH_AL_4/0_Zuzara_0_416_0_2_2_2_2

New Line.l(r:p1udm6159-p1ulv16814) Units=km Length=0.04058450000000001 bus1=p1udm6159.1.2 bus2=p1ulv16814.1.2 switch=n enabled=y phases=2 Linecode=1P_UG_AL_1/0_Brenau_0_416_0_2_2_2_2

New Line.l(r:p1udm6159-p1ulv43488) Units=km Length=0.0196579 bus1=p1udm6159.1.2 bus2=p1ulv43488.1.2 switch=n enabled=y phases=2 Linecode=1P_UG_AL_1/0_Brenau_0_416_0_2_2_2_2

New Line.l(r:p1udm6159-p1ulv50341) Units=km Length=0.022145900000000003 bus1=p1udm6159.1.2 bus2=p1ulv50341.1.2 switch=n enabled=y phases=2 Linecode=1P_UG_AL_1/0_Brenau_0_416_0_2_2_2_2

New Line.l(r:p1udm6159-p1udt1687lv) Units=km Length=0.00994489 bus1=p1udt1687lv.1.2 bus2=p1udm6159.1.2 switch=n enabled=y phases=2 Linecode=1P_UG_AL_4/0_Sweetbriar_0_416_0_2_2_2_2

New Line.l(r:p1udm6160-p1ulv30819) Units=km Length=0.0213419 bus1=p1udm6160.1.2 bus2=p1ulv30819.1.2 switch=n enabled=y phases=2 Linecode=1P_UG_AL_1/0_Brenau_0_416_0_2_2_2_2

New Line.l(r:p1udm6158-p1ulv1764) Units=km Length=0.015163000000000001 bus1=p1udm6158.1.2 bus2=p1ulv1764.1.2 switch=n enabled=y phases=2 Linecode=1P_UG_AL_2/0_Converse_0_416_0_2_2_2_2

New Line.l(r:p1udm6158-p1udm6160) Units=km Length=0.029824900000000005 bus1=p1udm6160.1.2 bus2=p1udm6158.1.2 switch=n enabled=y phases=2 Linecode=1P_UG_AL_2/0_Converse_0_416_0_2_2_2_2

New Line.l(r:p1udm6160-p1udt1687lv) Units=km Length=0.00994489 bus1=p1udt1687lv.1.2 bus2=p1udm6160.1.2 switch=n enabled=y phases=2 Linecode=1P_UG_AL_4/0_Sweetbriar_0_416_0_2_2_2_2

New Line.l(r:p1udt2254lv-p1ulv2381) Units=km Length=0.00242464 bus1=p1udt2254lv.1.2 bus2=p1ulv2381.1.2 switch=n enabled=y phases=2 Linecode=1P_OH_AL_4_Periwinkle_0_416_0_2_2_2_2

New Line.l(r:p1udt2827lv-p1ulv9300) Units=km Length=0.0177392 bus1=p1udt2827lv.1.2 bus2=p1ulv9300.1.2 switch=n enabled=y phases=2 Linecode=1P_UG_AL_1/0_Brenau_0_416_0_2_2_2_2

New Line.l(r:p1udt2827lv-p1ulv23216) Units=km Length=0.0188186 bus1=p1udt2827lv.1.2 bus2=p1ulv23216.1.2 switch=n enabled=y phases=2 Linecode=1P_UG_AL_1/0_Brenau_0_416_0_2_2_2_2

New Line.l(r:p1udm10077-p1ulv3019) Units=km Length=0.023580900000000002 bus1=p1udm10077.1.2 bus2=p1ulv3019.1.2 switch=n enabled=y phases=2 Linecode=1P_UG_AL_1/0_Brenau_0_416_0_2_2_2_2

New Line.l(r:p1udm10077-p1udt2827lv) Units=km Length=0.00991307 bus1=p1udt2827lv.1.2 bus2=p1udm10077.1.2 switch=n enabled=y phases=2 Linecode=1P_UG_AL_1/0_Brenau_0_416_0_2_2_2_2

New Line.l(r:p1udt2829lv-p1ulv3023) Units=km Length=0.0920557 bus1=p1udt2829lv.1.2 bus2=p1ulv3023.1.2 switch=n enabled=y phases=2 Linecode=1P_OH_AL_4/0_Zuzara_0_416_0_2_2_2_2

New Line.l(r:p1udt3411lv-p1ulv28938) Units=km Length=0.0181609 bus1=p1udt3411lv.1.2 bus2=p1ulv28938.1.2 switch=n enabled=y phases=2 Linecode=1P_OH_AL_2/0_Rucina_0_416_0_2_2_2_2

New Line.l(r:p1udm12058-p1ulv3665) Units=km Length=0.011472200000000002 bus1=p1udm12058.1.2 bus2=p1ulv3665.1.2 switch=n enabled=y phases=2 Linecode=1P_OH_AL_2/0_Rucina_0_416_0_2_2_2_2

New Line.l(r:p1udm12058-p1udt3411lv) Units=km Length=0.0127269 bus1=p1udt3411lv.1.2 bus2=p1udm12058.1.2 switch=n enabled=y phases=2 Linecode=1P_OH_AL_2/0_Rucina_0_416_0_2_2_2_2

New Line.l(r:p1udm12059-p1ulv11770) Units=km Length=0.0186397 bus1=p1udm12059.1.2 bus2=p1ulv11770.1.2 switch=n enabled=y phases=2 Linecode=1P_OH_AL_2/0_Rucina_0_416_0_2_2_2_2

New Line.l(r:p1udm12059-p1udt3411lv) Units=km Length=0.0207875 bus1=p1udt3411lv.1.2 bus2=p1udm12059.1.2 switch=n enabled=y phases=2 Linecode=1P_OH_AL_2/0_Rucina_0_416_0_2_2_2_2

New Line.l(r:p1udt3412lv-p1ulv3666) Units=km Length=0.019182100000000004 bus1=p1udt3412lv.1.2 bus2=p1ulv3666.1.2 switch=n enabled=y phases=2 Linecode=1P_UG_AL_2/0_Converse_0_416_0_2_2_2_2

New Line.l(r:p1udt3413lv-p1ulv19411) Units=km Length=0.0168252 bus1=p1udt3413lv.1.2 bus2=p1ulv19411.1.2 switch=n enabled=y phases=2 Linecode=1P_UG_AL_1/0_Brenau_0_416_0_2_2_2_2

New Line.l(r:p1udm12062-p1ulv3667) Units=km Length=0.0138262 bus1=p1udm12062.1.2 bus2=p1ulv3667.1.2 switch=n enabled=y phases=2 Linecode=1P_UG_AL_2/0_Converse_0_416_0_2_2_2_2

New Line.l(r:p1udm12064-p1ulv49720) Units=km Length=0.021062300000000003 bus1=p1udm12064.1.2 bus2=p1ulv49720.1.2 switch=n enabled=y phases=2 Linecode=1P_UG_AL_1/0_Brenau_0_416_0_2_2_2_2

New Line.l(r:p1udm12062-p1udm12064) Units=km Length=0.0149834 bus1=p1udm12062.1.2 bus2=p1udm12064.1.2 switch=n enabled=y phases=2 Linecode=1P_UG_AL_1/0_Brenau_0_416_0_2_2_2_2

New Line.l(r:p1udm12062-p1udt3413lv) Units=km Length=0.00870483 bus1=p1udt3413lv.1.2 bus2=p1udm12062.1.2 switch=n enabled=y phases=2 Linecode=1P_UG_AL_4/0_Sweetbriar_0_416_0_2_2_2_2

New Line.l(r:p1udm12065-p1ulv62736) Units=km Length=0.023344200000000002 bus1=p1udm12065.1.2 bus2=p1ulv62736.1.2 switch=n enabled=y phases=2 Linecode=1P_UG_AL_1/0_Brenau_0_416_0_2_2_2_2

New Line.l(r:p1udm12065-p1udt3413lv) Units=km Length=0.018595800000000003 bus1=p1udt3413lv.1.2 bus2=p1udm12065.1.2 switch=n enabled=y phases=2 Linecode=1P_UG_AL_1/0_Brenau_0_416_0_2_2_2_2

New Line.l(r:p1udm12066-p1ulv3668) Units=km Length=0.014864100000000002 bus1=p1udm12066.1.2 bus2=p1ulv3668.1.2 switch=n enabled=y phases=2 Linecode=1P_UG_AL_1/0_Brenau_0_416_0_2_2_2_2

New Line.l(r:p1udm12068-p1ulv32718) Units=km Length=0.015051 bus1=p1udm12068.1.2 bus2=p1ulv32718.1.2 switch=n enabled=y phases=2 Linecode=1P_UG_AL_1/0_Brenau_0_416_0_2_2_2_2

New Line.l(r:p1udm12068-p1ulv42200) Units=km Length=0.0178862 bus1=p1udm12068.1.2 bus2=p1ulv42200.1.2 switch=n enabled=y phases=2 Linecode=1P_UG_AL_1/0_Brenau_0_416_0_2_2_2_2

New Line.l(r:p1udm12066-p1udm12068) Units=km Length=0.00744713 bus1=p1udm12066.1.2 bus2=p1udm12068.1.2 switch=n enabled=y phases=2 Linecode=1P_UG_AL_4/0_Sweetbriar_0_416_0_2_2_2_2

New Line.l(r:p1udm12066-p1udt3414lv) Units=km Length=0.00744713 bus1=p1udt3414lv.1.2 bus2=p1udm12066.1.2 switch=n enabled=y phases=2 Linecode=1P_UG_AL_4/0_Sweetbriar_0_416_0_2_2_2_2

New Line.l(r:p1udm12067-p1ulv28327) Units=km Length=0.0179261 bus1=p1udm12067.1.2 bus2=p1ulv28327.1.2 switch=n enabled=y phases=2 Linecode=1P_UG_AL_1/0_Brenau_0_416_0_2_2_2_2

New Line.l(r:p1udm12067-p1udt3414lv) Units=km Length=0.0224384 bus1=p1udt3414lv.1.2 bus2=p1udm12067.1.2 switch=n enabled=y phases=2 Linecode=1P_UG_AL_1/0_Brenau_0_416_0_2_2_2_2

New Line.l(r:p1udt3911lv-p1ulv4268) Units=km Length=0.0180426 bus1=p1udt3911lv.1.2 bus2=p1ulv4268.1.2 switch=n enabled=y phases=2 Linecode=1P_UG_AL_4/0_Sweetbriar_0_416_0_2_2_2_2

New Line.l(r:p1udt4907lv-p1ulv61472) Units=km Length=0.00683071 bus1=p1udt4907lv.1.2 bus2=p1ulv61472.1.2 switch=n enabled=y phases=2 Linecode=1P_OH_AL_2/0_Rucina_0_416_0_2_2_2_2

New Line.l(r:p1udm17147-p1ulv5516) Units=km Length=0.00801648 bus1=p1udm17147.1.2 bus2=p1ulv5516.1.2 switch=n enabled=y phases=2 Linecode=1P_OH_AL_2/0_Rucina_0_416_0_2_2_2_2

New Line.l(r:p1udm17147-p1udt4907lv) Units=km Length=0.0351807 bus1=p1udt4907lv.1.2 bus2=p1udm17147.1.2 switch=n enabled=y phases=2 Linecode=1P_OH_AL_4/0_Zuzara_0_416_0_2_2_2_2

New Line.l(r:p1udt5420lv-p1ulv6160) Units=km Length=0.023649 bus1=p1udt5420lv.1.2 bus2=p1ulv6160.1.2 switch=n enabled=y phases=2 Linecode=1P_UG_AL_1/0_Brenau_0_416_0_2_2_2_2

New Line.l(r:p1udt5420lv-p1ulv57794) Units=km Length=0.0170774 bus1=p1udt5420lv.1.2 bus2=p1ulv57794.1.2 switch=n enabled=y phases=2 Linecode=1P_UG_AL_1/0_Brenau_0_416_0_2_2_2_2

New Line.l(r:p1udm18926-p1ulv17417) Units=km Length=0.0171695 bus1=p1udm18926.1.2 bus2=p1ulv17417.1.2 switch=n enabled=y phases=2 Linecode=1P_UG_AL_1/0_Brenau_0_416_0_2_2_2_2

New Line.l(r:p1udm18926-p1udt5420lv) Units=km Length=0.008954160000000001 bus1=p1udt5420lv.1.2 bus2=p1udm18926.1.2 switch=n enabled=y phases=2 Linecode=1P_UG_AL_1/0_Brenau_0_416_0_2_2_2_2

New Line.l(r:p1udt5421lv-p1ulv6161) Units=km Length=0.015299 bus1=p1udt5421lv.1.2 bus2=p1ulv6161.1.2 switch=n enabled=y phases=2 Linecode=1P_UG_AL_1/0_Brenau_0_416_0_2_2_2_2

New Line.l(r:p1udm18929-p1ulv16815) Units=km Length=0.0174871 bus1=p1udm18929.1.2 bus2=p1ulv16815.1.2 switch=n enabled=y phases=2 Linecode=1P_UG_AL_1/0_Brenau_0_416_0_2_2_2_2

New Line.l(r:p1udm18929-p1udt5421lv) Units=km Length=0.00939984 bus1=p1udt5421lv.1.2 bus2=p1udm18929.1.2 switch=n enabled=y phases=2 Linecode=1P_UG_AL_1/0_Brenau_0_416_0_2_2_2_2

New Line.l(r:p1udm18930-p1ulv37210) Units=km Length=0.0148899 bus1=p1udm18930.1.2 bus2=p1ulv37210.1.2 switch=n enabled=y phases=2 Linecode=1P_UG_AL_1/0_Brenau_0_416_0_2_2_2_2

New Line.l(r:p1udm18930-p1udt5421lv) Units=km Length=0.00939984 bus1=p1udt5421lv.1.2 bus2=p1udm18930.1.2 switch=n enabled=y phases=2 Linecode=1P_UG_AL_1/0_Brenau_0_416_0_2_2_2_2

New Line.l(r:p1udt5422lv-p1ulv15497) Units=km Length=0.023915300000000004 bus1=p1udt5422lv.1.2 bus2=p1ulv15497.1.2 switch=n enabled=y phases=2 Linecode=1P_UG_AL_2/0_Converse_0_416_0_2_2_2_2

New Line.l(r:p1udt5422lv-p1ulv37208) Units=km Length=0.027648200000000005 bus1=p1udt5422lv.1.2 bus2=p1ulv37208.1.2 switch=n enabled=y phases=2 Linecode=1P_UG_AL_1/0_Brenau_0_416_0_2_2_2_2

New Line.l(r:p1udt5422lv-p1ulv57204) Units=km Length=0.0446453 bus1=p1udt5422lv.1.2 bus2=p1ulv57204.1.2 switch=n enabled=y phases=2 Linecode=1P_UG_AL_1/0_Brenau_0_416_0_2_2_2_2

New Line.l(r:p1udm18934-p1ulv37209) Units=km Length=0.0318984 bus1=p1udm18934.1.2 bus2=p1ulv37209.1.2 switch=n enabled=y phases=2 Linecode=1P_UG_AL_1/0_Brenau_0_416_0_2_2_2_2

New Line.l(r:p1udm18931-p1ulv6162) Units=km Length=0.013753500000000002 bus1=p1udm18931.1.2 bus2=p1ulv6162.1.2 switch=n enabled=y phases=2 Linecode=1P_UG_AL_1/0_Brenau_0_416_0_2_2_2_2

New Line.l(r:p1udm18931-p1udm18934) Units=km Length=0.016601000000000005 bus1=p1udm18934.1.2 bus2=p1udm18931.1.2 switch=n enabled=y phases=2 Linecode=1P_UG_AL_1/0_Brenau_0_416_0_2_2_2_2

New Line.l(r:p1udm18934-p1udt5422lv) Units=km Length=0.00830644 bus1=p1udt5422lv.1.2 bus2=p1udm18934.1.2 switch=n enabled=y phases=2 Linecode=1P_UG_AL_4/0_Sweetbriar_0_416_0_2_2_2_2

New Line.l(r:p1udt5423lv-p1ulv6163) Units=km Length=0.0216987 bus1=p1udt5423lv.1.2 bus2=p1ulv6163.1.2 switch=n enabled=y phases=2 Linecode=1P_OH_AL_2/0_Rucina_0_416_0_2_2_2_2

New Line.l(r:p1udm18937-p1ulv6164) Units=km Length=0.0171928 bus1=p1udm18937.1.2 bus2=p1ulv6164.1.2 switch=n enabled=y phases=2 Linecode=1P_UG_AL_1/0_Brenau_0_416_0_2_2_2_2

New Line.l(r:p1udm18937-p1udt5424lv) Units=km Length=0.007631340000000001 bus1=p1udt5424lv.1.2 bus2=p1udm18937.1.2 switch=n enabled=y phases=2 Linecode=1P_UG_AL_1/0_Brenau_0_416_0_2_2_2_2

New Line.l(r:p1udm18938-p1ulv30820) Units=km Length=0.017474 bus1=p1udm18938.1.2 bus2=p1ulv30820.1.2 switch=n enabled=y phases=2 Linecode=1P_UG_AL_1/0_Brenau_0_416_0_2_2_2_2

New Line.l(r:p1udm18939-p1ulv65273) Units=km Length=0.016701400000000005 bus1=p1udm18939.1.2 bus2=p1ulv65273.1.2 switch=n enabled=y phases=2 Linecode=1P_UG_AL_1/0_Brenau_0_416_0_2_2_2_2

New Line.l(r:p1udm18938-p1udm18939) Units=km Length=0.00762168 bus1=p1udm18938.1.2 bus2=p1udm18939.1.2 switch=n enabled=y phases=2 Linecode=1P_UG_AL_1/0_Brenau_0_416_0_2_2_2_2

New Line.l(r:p1udm18938-p1udt5424lv) Units=km Length=0.007631340000000001 bus1=p1udt5424lv.1.2 bus2=p1udm18938.1.2 switch=n enabled=y phases=2 Linecode=1P_UG_AL_4/0_Sweetbriar_0_416_0_2_2_2_2

New Line.l(r:p1udm18968-p1ulv6177) Units=km Length=0.00797097 bus1=p1udm18968.1.2 bus2=p1ulv6177.1.2 switch=n enabled=y phases=2 Linecode=1P_OH_AL_2/0_Rucina_0_416_0_2_2_2_2

New Line.l(r:p1udm18969-p1ulv56595) Units=km Length=0.0113412 bus1=p1udm18969.1.2 bus2=p1ulv56595.1.2 switch=n enabled=y phases=2 Linecode=1P_OH_AL_2/0_Rucina_0_416_0_2_2_2_2

New Line.l(r:p1udm18968-p1udm18969) Units=km Length=0.0841906 bus1=p1udm18968.1.2 bus2=p1udm18969.1.2 switch=n enabled=y phases=2 Linecode=1P_OH_AL_4/0_Zuzara_0_416_0_2_2_2_2

New Line.l(r:p1udm18968-p1udt5433lv) Units=km Length=0.0349592 bus1=p1udt5433lv.1.2 bus2=p1udm18968.1.2 switch=n enabled=y phases=2 Linecode=1P_OH_AL_4/0_Zuzara_0_416_0_2_1_2_2_2

New Line.l(r:p1udm20604-p1ulv6825) Units=km Length=0.01556 bus1=p1udm20604.1.2 bus2=p1ulv6825.1.2 switch=n enabled=y phases=2 Linecode=1P_UG_AL_1/0_Brenau_0_416_0_2_2_2_2

New Line.l(r:p1udm20604-p1udt5936lv) Units=km Length=0.0955793 bus1=p1udt5936lv.1.2 bus2=p1udm20604.1.2 switch=n enabled=y phases=2 Linecode=1P_UG_AL_1/0_Brenau_0_416_0_2_2_2_2

New Line.l(r:p1udm20605-p1ulv46680) Units=km Length=0.00894752 bus1=p1udm20605.1.2 bus2=p1ulv46680.1.2 switch=n enabled=y phases=2 Linecode=1P_UG_AL_1/0_Brenau_0_416_0_2_2_2_2

New Line.l(r:p1udm20605-p1ulv54792) Units=km Length=0.0207833 bus1=p1udm20605.1.2 bus2=p1ulv54792.1.2 switch=n enabled=y phases=2 Linecode=1P_UG_AL_1/0_Brenau_0_416_0_2_2_2_2

New Line.l(r:p1udm20605-p1udt5936lv) Units=km Length=0.00842021 bus1=p1udt5936lv.1.2 bus2=p1udm20605.1.2 switch=n enabled=y phases=2 Linecode=1P_UG_AL_4/0_Sweetbriar_0_416_0_2_2_2_2

New Line.l(r:p1udt6403lv-p1ulv9924) Units=km Length=0.015490700000000001 bus1=p1udt6403lv.1.2 bus2=p1ulv9924.1.2 switch=n enabled=y phases=2 Linecode=1P_UG_AL_1/0_Brenau_0_416_0_2_2_2_2

New Line.l(r:p1udt6403lv-p1ulv60814) Units=km Length=0.0150819 bus1=p1udt6403lv.1.2 bus2=p1ulv60814.1.2 switch=n enabled=y phases=2 Linecode=1P_UG_AL_1/0_Brenau_0_416_0_2_2_2_2

New Line.l(r:p1udm22121-p1ulv7443) Units=km Length=0.0179873 bus1=p1udm22121.1.2 bus2=p1ulv7443.1.2 switch=n enabled=y phases=2 Linecode=1P_UG_AL_1/0_Brenau_0_416_0_2_2_2_2

New Line.l(r:p1udm22121-p1udt6403lv) Units=km Length=0.029029 bus1=p1udt6403lv.1.2 bus2=p1udm22121.1.2 switch=n enabled=y phases=2 Linecode=1P_UG_AL_1/0_Brenau_0_416_0_2_2_2_2

New Line.l(r:p1udm22124-p1ulv47275) Units=km Length=0.0238479 bus1=p1udm22124.1.2 bus2=p1ulv47275.1.2 switch=n enabled=y phases=2 Linecode=1P_UG_AL_1/0_Brenau_0_416_0_2_2_2_2

New Line.l(r:p1udm22123-p1ulv43489) Units=km Length=0.0440672 bus1=p1udm22123.1.2 bus2=p1ulv43489.1.2 switch=n enabled=y phases=2 Linecode=1P_UG_AL_1/0_Brenau_0_416_0_2_2_2_2

New Line.l(r:p1udm22123-p1udm22124) Units=km Length=0.0193501 bus1=p1udm22124.1.2 bus2=p1udm22123.1.2 switch=n enabled=y phases=2 Linecode=1P_UG_AL_1/0_Brenau_0_416_0_2_2_2_2

New Line.l(r:p1udm22124-p1udt6403lv) Units=km Length=0.00968096 bus1=p1udt6403lv.1.2 bus2=p1udm22124.1.2 switch=n enabled=y phases=2 Linecode=1P_UG_AL_4/0_Sweetbriar_0_416_0_2_2_2_2

New Line.l(r:p1udt6404lv-p1ulv63997) Units=km Length=0.0141724 bus1=p1udt6404lv.1.2 bus2=p1ulv63997.1.2 switch=n enabled=y phases=2 Linecode=1P_UG_AL_1/0_Brenau_0_416_0_2_2_2_2

New Line.l(r:p1udm22126-p1ulv7444) Units=km Length=0.0134972 bus1=p1udm22126.1.2 bus2=p1ulv7444.1.2 switch=n enabled=y phases=2 Linecode=1P_UG_AL_4/0_Sweetbriar_0_416_0_2_2_2_2

New Line.l(r:p1udm22126-p1udt6404lv) Units=km Length=0.00969355 bus1=p1udt6404lv.1.2 bus2=p1udm22126.1.2 switch=n enabled=y phases=2 Linecode=1P_UG_AL_4/0_Sweetbriar_0_416_0_2_2_2_2

New Line.l(r:p1udt6844lv-p1ulv8058) Units=km Length=0.0152102 bus1=p1udt6844lv.1.2 bus2=p1ulv8058.1.2 switch=n enabled=y phases=2 Linecode=1P_UG_AL_1/0_Brenau_0_416_0_2_2_2_2

New Line.l(r:p1udm23601-p1ulv23213) Units=km Length=0.0176895 bus1=p1udm23601.1.2 bus2=p1ulv23213.1.2 switch=n enabled=y phases=2 Linecode=1P_UG_AL_1/0_Brenau_0_416_0_2_2_2_2

New Line.l(r:p1udm23601-p1udt6844lv) Units=km Length=0.0183283 bus1=p1udt6844lv.1.2 bus2=p1udm23601.1.2 switch=n enabled=y phases=2 Linecode=1P_UG_AL_1/0_Brenau_0_416_0_2_2_2_2

New Line.l(r:p1udm23602-p1ulv46679) Units=km Length=0.0222313 bus1=p1udm23602.1.2 bus2=p1ulv46679.1.2 switch=n enabled=y phases=2 Linecode=1P_UG_AL_1/0_Brenau_0_416_0_2_2_2_2

New Line.l(r:p1udm23602-p1udt6844lv) Units=km Length=0.0099168 bus1=p1udt6844lv.1.2 bus2=p1udm23602.1.2 switch=n enabled=y phases=2 Linecode=1P_UG_AL_1/0_Brenau_0_416_0_2_2_2_2

New Line.l(r:p1udm23603-p1ulv8059) Units=km Length=0.015624700000000002 bus1=p1udm23603.1.2 bus2=p1ulv8059.1.2 switch=n enabled=y phases=2 Linecode=1P_UG_AL_1/0_Brenau_0_416_0_2_2_2_2

New Line.l(r:p1udm23603-p1ulv39085) Units=km Length=0.0155369 bus1=p1udm23603.1.2 bus2=p1ulv39085.1.2 switch=n enabled=y phases=2 Linecode=1P_UG_AL_1/0_Brenau_0_416_0_2_2_2_2

New Line.l(r:p1udm23603-p1udt6845lv) Units=km Length=0.00969846 bus1=p1udt6845lv.1.2 bus2=p1udm23603.1.2 switch=n enabled=y phases=2 Linecode=1P_UG_AL_4/0_Sweetbriar_0_416_0_2_2_2_2

New Line.l(r:p1udm23605-p1ulv55964) Units=km Length=0.0156792 bus1=p1udm23605.1.2 bus2=p1ulv55964.1.2 switch=n enabled=y phases=2 Linecode=1P_UG_AL_1/0_Brenau_0_416_0_2_2_2_2

New Line.l(r:p1udm23605-p1udt6845lv) Units=km Length=0.0196251 bus1=p1udt6845lv.1.2 bus2=p1udm23605.1.2 switch=n enabled=y phases=2 Linecode=1P_UG_AL_1/0_Brenau_0_416_0_2_2_2_2

New Line.l(r:p1udm23607-p1ulv39086) Units=km Length=0.0172827 bus1=p1udm23607.1.2 bus2=p1ulv39086.1.2 switch=n enabled=y phases=2 Linecode=1P_OH_AL_2/0_Rucina_0_416_0_2_2_2_2

New Line.l(r:p1udm23606-p1ulv8060) Units=km Length=0.0180051 bus1=p1udm23606.1.2 bus2=p1ulv8060.1.2 switch=n enabled=y phases=2 Linecode=1P_OH_AL_2/0_Rucina_0_416_0_2_2_2_2

New Line.l(r:p1udm23606-p1udm23607) Units=km Length=0.0181082 bus1=p1udm23607.1.2 bus2=p1udm23606.1.2 switch=n enabled=y phases=2 Linecode=1P_OH_AL_2/0_Rucina_0_416_0_2_2_2_2

New Line.l(r:p1udm23607-p1udt6846lv) Units=km Length=0.0181173 bus1=p1udt6846lv.1.2 bus2=p1udm23607.1.2 switch=n enabled=y phases=2 Linecode=1P_OH_AL_2/0_Rucina_0_416_0_2_2_2_2

New Line.l(r:p1udm23608-p1ulv44136) Units=km Length=0.028519700000000002 bus1=p1udm23608.1.2 bus2=p1ulv44136.1.2 switch=n enabled=y phases=2 Linecode=1P_OH_AL_4/0_Zuzara_0_416_0_2_2_2_2

New Line.l(r:p1udm23608-p1udt6846lv) Units=km Length=0.0543337 bus1=p1udt6846lv.1.2 bus2=p1udm23608.1.2 switch=n enabled=y phases=2 Linecode=1P_OH_AL_4/0_Zuzara_0_416_0_2_2_2_2

New Line.l(r:p1udm23636-p1ulv8077) Units=km Length=0.00577543 bus1=p1udm23636.1.2 bus2=p1ulv8077.1.2 switch=n enabled=y phases=2 Linecode=1P_OH_AL_2/0_Rucina_0_416_0_2_2_2_2

New Line.l(r:p1udm23636-p1udt6860lv) Units=km Length=0.0802441 bus1=p1udt6860lv.1.2 bus2=p1udm23636.1.2 switch=n enabled=y phases=2 Linecode=1P_OH_AL_4/0_Zuzara_0_416_0_2_2_2_2

New Line.l(r:p1udm23637-p1ulv13660) Units=km Length=0.00595189 bus1=p1udm23637.1.2 bus2=p1ulv13660.1.2 switch=n enabled=y phases=2 Linecode=1P_OH_AL_2/0_Rucina_0_416_0_2_2_2_2

New Line.l(r:p1udm23638-p1ulv18779) Units=km Length=0.0031878 bus1=p1udm23638.1.2 bus2=p1ulv18779.1.2 switch=n enabled=y phases=2 Linecode=1P_OH_AL_4_Periwinkle_0_416_0_2_2_2_2

New Line.l(r:p1udm23637-p1udm23638) Units=km Length=0.0786201 bus1=p1udm23637.1.2 bus2=p1udm23638.1.2 switch=n enabled=y phases=2 Linecode=1P_OH_AL_4/0_Zuzara_0_416_0_2_2_2_2

New Line.l(r:p1udm23637-p1udt6860lv) Units=km Length=0.0481631 bus1=p1udt6860lv.1.2 bus2=p1udm23637.1.2 switch=n enabled=y phases=2 Linecode=1P_OH_AL_4/0_Zuzara_0_416_0_2_2_2_2

New Line.l(r:p1udm24996-p1ulv8683) Units=km Length=0.01608 bus1=p1udm24996.1.2 bus2=p1ulv8683.1.2 switch=n enabled=y phases=2 Linecode=1P_UG_AL_1/0_Brenau_0_416_0_2_2_2_2

New Line.l(r:p1udm24996-p1ulv49719) Units=km Length=0.0135563 bus1=p1udm24996.1.2 bus2=p1ulv49719.1.2 switch=n enabled=y phases=2 Linecode=1P_UG_AL_1/0_Brenau_0_416_0_2_2_2_2

New Line.l(r:p1udm24996-p1udt7289lv) Units=km Length=0.00989518 bus1=p1udt7289lv.1.2 bus2=p1udm24996.1.2 switch=n enabled=y phases=2 Linecode=1P_UG_AL_4/0_Sweetbriar_0_416_0_2_2_2_2

New Line.l(r:p1udm24997-p1ulv37817) Units=km Length=0.0227015 bus1=p1udm24997.1.2 bus2=p1ulv37817.1.2 switch=n enabled=y phases=2 Linecode=1P_UG_AL_1/0_Brenau_0_416_0_2_2_2_2

New Line.l(r:p1udm24997-p1udt7289lv) Units=km Length=0.0099055 bus1=p1udt7289lv.1.2 bus2=p1udm24997.1.2 switch=n enabled=y phases=2 Linecode=1P_UG_AL_1/0_Brenau_0_416_0_2_2_2_2

New Line.l(r:p1udt7290lv-p1ulv8684) Units=km Length=0.0148189 bus1=p1udt7290lv.1.2 bus2=p1ulv8684.1.2 switch=n enabled=y phases=2 Linecode=1P_UG_AL_1/0_Brenau_0_416_0_2_2_2_2

New Line.l(r:p1udm25000-p1ulv8685) Units=km Length=0.014998 bus1=p1udm25000.1.2 bus2=p1ulv8685.1.2 switch=n enabled=y phases=2 Linecode=1P_UG_AL_1/0_Brenau_0_416_0_2_2_2_2

New Line.l(r:p1udm25000-p1udt7291lv) Units=km Length=0.029104100000000004 bus1=p1udt7291lv.1.2 bus2=p1udm25000.1.2 switch=n enabled=y phases=2 Linecode=1P_UG_AL_1/0_Brenau_0_416_0_2_2_2_2

New Line.l(r:p1udm25001-p1ulv44771) Units=km Length=0.0136136 bus1=p1udm25001.1.2 bus2=p1ulv44771.1.2 switch=n enabled=y phases=2 Linecode=1P_UG_AL_4/0_Sweetbriar_0_416_0_2_2_2_2

New Line.l(r:p1udm25001-p1udt7291lv) Units=km Length=0.0759673 bus1=p1udt7291lv.1.2 bus2=p1udm25001.1.2 switch=n enabled=y phases=2 Linecode=1P_UG_AL_4/0_Sweetbriar_0_416_0_2_2_2_2

New Line.l(r:p1udt7292lv-p1ulv8686) Units=km Length=0.0640062 bus1=p1udt7292lv.1.2 bus2=p1ulv8686.1.2 switch=n enabled=y phases=2 Linecode=1P_UG_AL_4/0_Sweetbriar_0_416_0_2_2_2_2

New Line.l(r:p1udt7705lv-p1ulv9299) Units=km Length=0.017128600000000004 bus1=p1udt7705lv.1.2 bus2=p1ulv9299.1.2 switch=n enabled=y phases=2 Linecode=1P_UG_AL_1/0_Brenau_0_416_0_2_2_2_2

New Line.l(r:p1udt7706lv-p1ulv9301) Units=km Length=0.016981800000000002 bus1=p1udt7706lv.1.2 bus2=p1ulv9301.1.2 switch=n enabled=y phases=2 Linecode=1P_OH_AL_2/0_Rucina_0_416_0_2_2_2_2

New Line.l(r:p1udt8109lv-p1ulv9925) Units=km Length=0.0154539 bus1=p1udt8109lv.1.2 bus2=p1ulv9925.1.2 switch=n enabled=y phases=2 Linecode=1P_UG_AL_4/0_Sweetbriar_0_416_0_2_2_2_2

New Line.l(r:p1udt8109lv-p1ulv61463) Units=km Length=0.0257667 bus1=p1udt8109lv.1.2 bus2=p1ulv61463.1.2 switch=n enabled=y phases=2 Linecode=1P_UG_AL_1/0_Brenau_0_416_0_2_2_2_2

New Line.l(r:p1udt8110lv-p1ulv36568) Units=km Length=0.0187604 bus1=p1udt8110lv.1.2 bus2=p1ulv36568.1.2 switch=n enabled=y phases=2 Linecode=1P_UG_AL_1/0_Brenau_0_416_0_2_2_2_2

New Line.l(r:p1udt8110lv-p1ulv46051) Units=km Length=0.0159007 bus1=p1udt8110lv.1.2 bus2=p1ulv46051.1.2 switch=n enabled=y phases=2 Linecode=1P_UG_AL_1/0_Brenau_0_416_0_2_2_2_2

New Line.l(r:p1udm27616-p1ulv9926) Units=km Length=0.0155078 bus1=p1udm27616.1.2 bus2=p1ulv9926.1.2 switch=n enabled=y phases=2 Linecode=1P_UG_AL_1/0_Brenau_0_416_0_2_2_2_2

New Line.l(r:p1udm27616-p1udt8110lv) Units=km Length=0.0179683 bus1=p1udt8110lv.1.2 bus2=p1udm27616.1.2 switch=n enabled=y phases=2 Linecode=1P_UG_AL_1/0_Brenau_0_416_0_2_2_2_2

New Line.l(r:p1udm28940-p1ulv10542) Units=km Length=0.0249987 bus1=p1udm28940.1.2 bus2=p1ulv10542.1.2 switch=n enabled=y phases=2 Linecode=1P_UG_AL_1/0_Brenau_0_416_0_2_2_2_2

New Line.l(r:p1udm28940-p1udt8521lv) Units=km Length=0.0286618 bus1=p1udt8521lv.1.2 bus2=p1udm28940.1.2 switch=n enabled=y phases=2 Linecode=1P_UG_AL_1/0_Brenau_0_416_0_2_2_2_2

New Line.l(r:p1udm28941-p1ulv35956) Units=km Length=0.0183323 bus1=p1udm28941.1.2 bus2=p1ulv35956.1.2 switch=n enabled=y phases=2 Linecode=1P_UG_AL_1/0_Brenau_0_416_0_2_2_2_2

New Line.l(r:p1udm28941-p1udt8521lv) Units=km Length=0.0382105 bus1=p1udt8521lv.1.2 bus2=p1udm28941.1.2 switch=n enabled=y phases=2 Linecode=1P_UG_AL_1/0_Brenau_0_416_0_2_2_2_2

New Line.l(r:p1udt9273lv-p1ulv11771) Units=km Length=0.0150224 bus1=p1udt9273lv.1.2 bus2=p1ulv11771.1.2 switch=n enabled=y phases=2 Linecode=1P_OH_AL_2/0_Rucina_0_416_0_2_2_2_2

New Line.l(r:p1udt9274lv-p1ulv11772) Units=km Length=0.0154969 bus1=p1udt9274lv.1.2 bus2=p1ulv11772.1.2 switch=n enabled=y phases=2 Linecode=1P_OH_AL_2/0_Rucina_0_416_0_2_2_2_2

New Line.l(r:p1udt9276lv-p1ulv11774) Units=km Length=0.00771418 bus1=p1udt9276lv.1.2 bus2=p1ulv11774.1.2 switch=n enabled=y phases=2 Linecode=1P_OH_AL_2/0_Rucina_0_416_0_2_2_2_2

New Line.l(r:p1udt9277lv-p1ulv63998) Units=km Length=0.0290467 bus1=p1udt9277lv.1.2 bus2=p1ulv63998.1.2 switch=n enabled=y phases=2 Linecode=1P_OH_AL_4/0_Zuzara_0_416_0_2_2_2_2

New Line.l(r:p1udm31220-p1ulv11775) Units=km Length=0.0261201 bus1=p1udm31220.1.2 bus2=p1ulv11775.1.2 switch=n enabled=y phases=2 Linecode=1P_OH_AL_2/0_Rucina_0_416_0_2_2_2_2

New Line.l(r:p1udm31220-p1udt9277lv) Units=km Length=0.0129387 bus1=p1udt9277lv.1.2 bus2=p1udm31220.1.2 switch=n enabled=y phases=2 Linecode=1P_OH_AL_2/0_Rucina_0_416_0_2_2_2_2

New Line.l(r:p1udt9678lv-p1ulv55376) Units=km Length=0.015951 bus1=p1udt9678lv.1.2 bus2=p1ulv55376.1.2 switch=n enabled=y phases=2 Linecode=1P_UG_AL_1/0_Brenau_0_416_0_2_2_2_2

New Line.l(r:p1udt9678lv-p1ulv62735) Units=km Length=0.0162896 bus1=p1udt9678lv.1.2 bus2=p1ulv62735.1.2 switch=n enabled=y phases=2 Linecode=1P_UG_AL_1/0_Brenau_0_416_0_2_2_2_2

New Line.l(r:p1udm32469-p1ulv12422) Units=km Length=0.0231798 bus1=p1udm32469.1.2 bus2=p1ulv12422.1.2 switch=n enabled=y phases=2 Linecode=1P_UG_AL_1/0_Brenau_0_416_0_2_2_2_2

New Line.l(r:p1udm32469-p1udt9678lv) Units=km Length=0.00960992 bus1=p1udt9678lv.1.2 bus2=p1udm32469.1.2 switch=n enabled=y phases=2 Linecode=1P_UG_AL_1/0_Brenau_0_416_0_2_2_2_2

New Line.l(r:p1udm33467-p1ulv13017) Units=km Length=0.0174577 bus1=p1udm33467.1.2 bus2=p1ulv13017.1.2 switch=n enabled=y phases=2 Linecode=1P_UG_AL_1/0_Brenau_0_416_0_2_2_2_2

New Line.l(r:p1udm33467-p1ulv59605) Units=km Length=0.0167277 bus1=p1udm33467.1.2 bus2=p1ulv59605.1.2 switch=n enabled=y phases=2 Linecode=1P_UG_AL_1/0_Brenau_0_416_0_2_2_2_2

New Line.l(r:p1udm33467-p1udt10021lv) Units=km Length=0.00982073 bus1=p1udt10021lv.1.2 bus2=p1udm33467.1.2 switch=n enabled=y phases=2 Linecode=1P_UG_AL_4/0_Sweetbriar_0_416_0_2_2_2_2

New Line.l(r:p1udm33468-p1ulv31438) Units=km Length=0.0167197 bus1=p1udm33468.1.2 bus2=p1ulv31438.1.2 switch=n enabled=y phases=2 Linecode=1P_UG_AL_1/0_Brenau_0_416_0_2_2_2_2

New Line.l(r:p1udm33468-p1udt10021lv) Units=km Length=0.00982062 bus1=p1udt10021lv.1.2 bus2=p1udm33468.1.2 switch=n enabled=y phases=2 Linecode=1P_UG_AL_1/0_Brenau_0_416_0_2_2_2_2

New Line.l(r:p1udt10022lv-p1ulv13018) Units=km Length=0.031417 bus1=p1udt10022lv.1.2 bus2=p1ulv13018.1.2 switch=n enabled=y phases=2 Linecode=1P_UG_AL_1/0_Brenau_0_416_0_2_2_2_2

New Line.l(r:p1udt10022lv-p1ulv21335) Units=km Length=0.024460900000000004 bus1=p1udt10022lv.1.2 bus2=p1ulv21335.1.2 switch=n enabled=y phases=2 Linecode=1P_UG_AL_1/0_Brenau_0_416_0_2_2_2_2

New Line.l(r:p1udm33472-p1ulv39705) Units=km Length=0.022970000000000004 bus1=p1udm33472.1.2 bus2=p1ulv39705.1.2 switch=n enabled=y phases=2 Linecode=1P_UG_AL_1/0_Brenau_0_416_0_2_2_2_2

New Line.l(r:p1udm33472-p1udt10022lv) Units=km Length=0.009555660000000002 bus1=p1udt10022lv.1.2 bus2=p1udm33472.1.2 switch=n enabled=y phases=2 Linecode=1P_UG_AL_1/0_Brenau_0_416_0_2_2_2_2

New Line.l(r:p1udt10388lv-p1ulv13630) Units=km Length=0.0170618 bus1=p1udt10388lv.1.2 bus2=p1ulv13630.1.2 switch=n enabled=y phases=2 Linecode=1P_UG_AL_1/0_Brenau_0_416_0_2_2_2_2

New Line.l(r:p1udm34595-p1ulv23215) Units=km Length=0.0157619 bus1=p1udm34595.1.2 bus2=p1ulv23215.1.2 switch=n enabled=y phases=2 Linecode=1P_UG_AL_1/0_Brenau_0_416_0_2_2_2_2

New Line.l(r:p1udm34595-p1udt10388lv) Units=km Length=0.00991307 bus1=p1udt10388lv.1.2 bus2=p1udm34595.1.2 switch=n enabled=y phases=2 Linecode=1P_UG_AL_1/0_Brenau_0_416_0_2_2_2_2

New Line.l(r:p1udm34596-p1ulv35308) Units=km Length=0.0146934 bus1=p1udm34596.1.2 bus2=p1ulv35308.1.2 switch=n enabled=y phases=2 Linecode=1P_UG_AL_1/0_Brenau_0_416_0_2_2_2_2

New Line.l(r:p1udm34596-p1udt10388lv) Units=km Length=0.00992665 bus1=p1udt10388lv.1.2 bus2=p1udm34596.1.2 switch=n enabled=y phases=2 Linecode=1P_UG_AL_1/0_Brenau_0_416_0_2_2_2_2

New Line.l(r:p1udt10389lv-p1ulv13631) Units=km Length=0.00452365 bus1=p1udt10389lv.1.2 bus2=p1ulv13631.1.2 switch=n enabled=y phases=2 Linecode=1P_OH_AL_2/0_Rucina_0_416_0_2_2_2_2

New Line.l(r:p1udt10392lv-p1ulv13634) Units=km Length=0.0078667 bus1=p1udt10392lv.1.2 bus2=p1ulv13634.1.2 switch=n enabled=y phases=2 Linecode=1P_OH_AL_2/0_Rucina_0_416_0_2_2_2_2

New Line.l(r:p1udm35627-p1ulv14276) Units=km Length=0.017786900000000005 bus1=p1udm35627.1.2 bus2=p1ulv14276.1.2 switch=n enabled=y phases=2 Linecode=1P_UG_AL_1/0_Brenau_0_416_0_2_2_2_2

New Line.l(r:p1udm35627-p1udt10750lv) Units=km Length=0.0133528 bus1=p1udt10750lv.1.2 bus2=p1udm35627.1.2 switch=n enabled=y phases=2 Linecode=1P_UG_AL_1/0_Brenau_0_416_0_2_2_2_2

New Line.l(r:p1udm35628-p1ulv51586) Units=km Length=0.0210344 bus1=p1udm35628.1.2 bus2=p1ulv51586.1.2 switch=n enabled=y phases=2 Linecode=1P_UG_AL_1/0_Brenau_0_416_0_2_2_2_2

New Line.l(r:p1udm35628-p1udt10750lv) Units=km Length=0.030720900000000002 bus1=p1udt10750lv.1.2 bus2=p1udm35628.1.2 switch=n enabled=y phases=2 Linecode=1P_UG_AL_1/0_Brenau_0_416_0_2_2_2_2

New Line.l(r:p1udt10752lv-p1ulv28939) Units=km Length=0.026089100000000004 bus1=p1udt10752lv.1.2 bus2=p1ulv28939.1.2 switch=n enabled=y phases=2 Linecode=1P_UG_AL_1/0_Brenau_0_416_0_2_2_2_2

New Line.l(r:p1udt10752lv-p1ulv53513) Units=km Length=0.0119402 bus1=p1udt10752lv.1.2 bus2=p1ulv53513.1.2 switch=n enabled=y phases=2 Linecode=1P_UG_AL_1/0_Brenau_0_416_0_2_2_2_2

New Line.l(r:p1udm35630-p1ulv14278) Units=km Length=0.0217665 bus1=p1udm35630.1.2 bus2=p1ulv14278.1.2 switch=n enabled=y phases=2 Linecode=1P_UG_AL_1/0_Brenau_0_416_0_2_2_2_2

New Line.l(r:p1udm35630-p1udt10752lv) Units=km Length=0.00962053 bus1=p1udt10752lv.1.2 bus2=p1udm35630.1.2 switch=n enabled=y phases=2 Linecode=1P_UG_AL_1/0_Brenau_0_416_0_2_2_2_2

New Line.l(r:p1udm36650-p1ulv14899) Units=km Length=0.0150196 bus1=p1udm36650.1.2 bus2=p1ulv14899.1.2 switch=n enabled=y phases=2 Linecode=1P_UG_AL_2/0_Converse_0_416_0_2_2_2_2

New Line.l(r:p1udm36652-p1ulv61461) Units=km Length=0.0154512 bus1=p1udm36652.1.2 bus2=p1ulv61461.1.2 switch=n enabled=y phases=2 Linecode=1P_UG_AL_1/0_Brenau_0_416_0_2_2_2_2

New Line.l(r:p1udm36650-p1udm36652) Units=km Length=0.00967889 bus1=p1udm36650.1.2 bus2=p1udm36652.1.2 switch=n enabled=y phases=2 Linecode=1P_UG_AL_1/0_Brenau_0_416_0_2_2_2_2

New Line.l(r:p1udm36650-p1udt11114lv) Units=km Length=0.00967118 bus1=p1udt11114lv.1.2 bus2=p1udm36650.1.2 switch=n enabled=y phases=2 Linecode=1P_UG_AL_4/0_Sweetbriar_0_416_0_2_2_2_2

New Line.l(r:p1udm36651-p1ulv40959) Units=km Length=0.0143916 bus1=p1udm36651.1.2 bus2=p1ulv40959.1.2 switch=n enabled=y phases=2 Linecode=1P_UG_AL_1/0_Brenau_0_416_0_2_2_2_2
