New Load.load_p1ulv516 conn=wye bus1=p1ulv516.1.2.3 kV=0.48 Vminpu=0.8 Vmaxpu=1.2 model=1 kW=32.780300000000004 kvar=6.65632381318085 Phases=3

New Load.load_p1ulv1118 conn=wye bus1=p1ulv1118.1.2.3 kV=0.48 Vminpu=0.8 Vmaxpu=1.2 model=1 kW=29.190300000000004 kvar=5.927343221504775 Phases=3

New Load.load_p1ulv3067 conn=wye bus1=p1ulv3067.1.2.3 kV=0.48 Vminpu=0.8 Vmaxpu=1.2 model=1 kW=34.670300000000005 kvar=7.040104681779118 Phases=3

New Load.load_p1ulv3068 conn=wye bus1=p1ulv3068.1.2.3 kV=0.48 Vminpu=0.8 Vmaxpu=1.2 model=1 kW=35.73040000000001 kvar=7.255367167917228 Phases=3

New Load.load_p1ulv3069 conn=wye bus1=p1ulv3069.1.2.3 kV=0.48 Vminpu=0.8 Vmaxpu=1.2 model=1 kW=31.300299999999996 kvar=6.355796995442524 Phases=3

New Load.load_p1ulv4309 conn=wye bus1=p1ulv4309.1.2.3 kV=0.48 Vminpu=0.8 Vmaxpu=1.2 model=1 kW=39.07039999999999 kvar=7.9335830944348 Phases=3

New Load.load_p1ulv4310 conn=wye bus1=p1ulv4310.1.2.3 kV=0.48 Vminpu=0.8 Vmaxpu=1.2 model=1 kW=30.450300000000002 kvar=6.183197133903621 Phases=3

New Load.load_p1ulv5562 conn=wye bus1=p1ulv5562.1.2.3 kV=0.48 Vminpu=0.8 Vmaxpu=1.2 model=1 kW=32.6103 kvar=6.62180384087307 Phases=3

New Load.load_p1ulv6233 conn=wye bus1=p1ulv6233.1.2 kV=0.2080002494301389 Vminpu=0.8 Vmaxpu=1.2 model=1 kW=15.2702 kvar=3.100746359613372 Phases=2

New Load.load_p1ulv7491 conn=wye bus1=p1ulv7491.1.2.3 kV=0.48 Vminpu=0.8 Vmaxpu=1.2 model=1 kW=38.6504 kvar=7.848298456968519 Phases=3

New Load.load_p1ulv7492 conn=wye bus1=p1ulv7492.1.2 kV=0.2080002494301389 Vminpu=0.8 Vmaxpu=1.2 model=1 kW=1.90002 kvar=0.3897743018115738 Phases=2

New Load.load_p1ulv9340 conn=wye bus1=p1ulv9340.1.2.3 kV=0.48 Vminpu=0.8 Vmaxpu=1.2 model=1 kW=35.610400000000006 kvar=7.2310001286411465 Phases=3

New Load.load_p1ulv9965 conn=wye bus1=p1ulv9965.1.2.3 kV=0.48 Vminpu=0.8 Vmaxpu=1.2 model=1 kW=29.710300000000004 kvar=6.032933725034458 Phases=3

New Load.load_p1ulv9966 conn=wye bus1=p1ulv9966.1.2.3 kV=0.48 Vminpu=0.8 Vmaxpu=1.2 model=1 kW=30.330300000000005 kvar=6.1588300946275405 Phases=3

New Load.load_p1ulv9967 conn=wye bus1=p1ulv9967.1.2.3 kV=0.48 Vminpu=0.8 Vmaxpu=1.2 model=1 kW=34.0703 kvar=6.918269485398717 Phases=3

New Load.load_p1ulv11198 conn=wye bus1=p1ulv11198.1.2.3 kV=0.48 Vminpu=0.8 Vmaxpu=1.2 model=1 kW=30.480300000000003 kvar=6.189288893722642 Phases=3

New Load.load_p1ulv11199 conn=wye bus1=p1ulv11199.1.2.3 kV=0.48 Vminpu=0.8 Vmaxpu=1.2 model=1 kW=42.9504 kvar=8.721450697694738 Phases=3

New Load.load_p1ulv11830 conn=wye bus1=p1ulv11830.1.2.3 kV=0.48 Vminpu=0.8 Vmaxpu=1.2 model=1 kW=32.4303 kvar=6.585253281958949 Phases=3

New Load.load_p1ulv12467 conn=wye bus1=p1ulv12467.1.2.3 kV=0.48 Vminpu=0.8 Vmaxpu=1.2 model=1 kW=40.440400000000004 kvar=8.211773459503387 Phases=3

New Load.load_p1ulv12468 conn=wye bus1=p1ulv12468.1.2.3 kV=0.48 Vminpu=0.8 Vmaxpu=1.2 model=1 kW=26.240300000000005 kvar=5.328320172634465 Phases=3

New Load.load_p1ulv13061 conn=wye bus1=p1ulv13061.1.2.3 kV=0.48 Vminpu=0.8 Vmaxpu=1.2 model=1 kW=31.810299999999998 kvar=6.459356912365865 Phases=3

New Load.load_p1ulv13693 conn=wye bus1=p1ulv13693.1.2 kV=0.2080002494301389 Vminpu=0.8 Vmaxpu=1.2 model=1 kW=4.01004 kvar=0.810067352976347 Phases=2

New Load.load_p1ulv13694 conn=wye bus1=p1ulv13694.1.2.3 kV=0.48 Vminpu=0.8 Vmaxpu=1.2 model=1 kW=30.390300000000003 kvar=6.17101361426558 Phases=3

New Load.load_p1ulv15555 conn=wye bus1=p1ulv15555.1.2.3 kV=0.48 Vminpu=0.8 Vmaxpu=1.2 model=1 kW=25.530300000000004 kvar=5.184148523584319 Phases=3

New Load.load_p1ulv15556 conn=wye bus1=p1ulv15556.1.2.3 kV=0.48 Vminpu=0.8 Vmaxpu=1.2 model=1 kW=31.710300000000004 kvar=6.439051046302467 Phases=3

New Load.load_p1ulv15557 conn=wye bus1=p1ulv15557.1.2.3 kV=0.48 Vminpu=0.8 Vmaxpu=1.2 model=1 kW=31.110299999999995 kvar=6.3172158499220625 Phases=3

New Load.load_p1ulv16201 conn=wye bus1=p1ulv16201.1.2.3 kV=0.48 Vminpu=0.8 Vmaxpu=1.2 model=1 kW=45.3705 kvar=9.21287296229509 Phases=3

New Load.load_p1ulv16873 conn=wye bus1=p1ulv16873.1.2.3 kV=0.48 Vminpu=0.8 Vmaxpu=1.2 model=1 kW=36.89039999999999 kvar=7.490915214252671 Phases=3

New Load.load_p1ulv16874 conn=wye bus1=p1ulv16874.1.2.3 kV=0.48 Vminpu=0.8 Vmaxpu=1.2 model=1 kW=31.690300000000004 kvar=6.434989873089786 Phases=3

New Load.load_p1ulv17466 conn=wye bus1=p1ulv17466.1.2.3 kV=0.48 Vminpu=0.8 Vmaxpu=1.2 model=1 kW=24.660199999999996 kvar=5.007467182966671 Phases=3

New Load.load_p1ulv18141 conn=wye bus1=p1ulv18141.1.2 kV=0.2080002494301389 Vminpu=0.8 Vmaxpu=1.2 model=1 kW=1.17001 kvar=0.24001843710200912 Phases=2

New Load.load_p1ulv18142 conn=wye bus1=p1ulv18142.1.2.3 kV=0.48 Vminpu=0.8 Vmaxpu=1.2 model=1 kW=31.810299999999998 kvar=6.459356912365865 Phases=3

New Load.load_p1ulv18813 conn=wye bus1=p1ulv18813.1.2.3 kV=0.48 Vminpu=0.8 Vmaxpu=1.2 model=1 kW=34.8503 kvar=7.076655240693239 Phases=3

New Load.load_p1ulv19471 conn=wye bus1=p1ulv19471.1.2 kV=0.2080002494301389 Vminpu=0.8 Vmaxpu=1.2 model=1 kW=4.590050000000001 kvar=0.9296449774282256 Phases=2

New Load.load_p1ulv20096 conn=wye bus1=p1ulv20096.1.2.3 kV=0.48 Vminpu=0.8 Vmaxpu=1.2 model=1 kW=37.5304 kvar=7.620872757058434 Phases=3

New Load.load_p1ulv20097 conn=wye bus1=p1ulv20097.1.2.3 kV=0.48 Vminpu=0.8 Vmaxpu=1.2 model=1 kW=29.970300000000005 kvar=6.085728976799299 Phases=3

New Load.load_p1ulv20738 conn=wye bus1=p1ulv20738.1.2.3 kV=0.48 Vminpu=0.8 Vmaxpu=1.2 model=1 kW=26.190300000000004 kvar=5.318167239602762 Phases=3

New Load.load_p1ulv21982 conn=wye bus1=p1ulv21982.1.2 kV=0.2080002494301389 Vminpu=0.8 Vmaxpu=1.2 model=1 kW=17.7802 kvar=3.6104235978047234 Phases=2

New Load.load_p1ulv21983 conn=wye bus1=p1ulv21983.1.2.3 kV=0.48 Vminpu=0.8 Vmaxpu=1.2 model=1 kW=33.7603 kvar=6.855321300602176 Phases=3

New Load.load_p1ulv21984 conn=wye bus1=p1ulv21984.1.2.3 kV=0.48 Vminpu=0.8 Vmaxpu=1.2 model=1 kW=25.2503 kvar=5.127292098606799 Phases=3

New Load.load_p1ulv22600 conn=wye bus1=p1ulv22600.1.2 kV=0.2080002494301389 Vminpu=0.8 Vmaxpu=1.2 model=1 kW=7.320070000000001 kvar=1.4902294201222208 Phases=2

New Load.load_p1ulv22601 conn=wye bus1=p1ulv22601.1.2.3 kV=0.48 Vminpu=0.8 Vmaxpu=1.2 model=1 kW=33.7203 kvar=6.847198954176815 Phases=3

New Load.load_p1ulv23276 conn=wye bus1=p1ulv23276.1.2.3 kV=0.48 Vminpu=0.8 Vmaxpu=1.2 model=1 kW=32.2603 kvar=6.550733309651171 Phases=3

New Load.load_p1ulv24556 conn=wye bus1=p1ulv24556.1.2 kV=0.2080002494301389 Vminpu=0.8 Vmaxpu=1.2 model=1 kW=3.7100400000000002 kvar=0.7494644148777485 Phases=2

New Load.load_p1ulv24557 conn=wye bus1=p1ulv24557.1.2.3 kV=0.48 Vminpu=0.8 Vmaxpu=1.2 model=1 kW=31.080300000000005 kvar=6.311124090103044 Phases=3

New Load.load_p1ulv26443 conn=wye bus1=p1ulv26443.1.2.3 kV=0.48 Vminpu=0.8 Vmaxpu=1.2 model=1 kW=37.0404 kvar=7.521374013347773 Phases=3

New Load.load_p1ulv27092 conn=wye bus1=p1ulv27092.1.2.3 kV=0.48 Vminpu=0.8 Vmaxpu=1.2 model=1 kW=31.890300000000003 kvar=6.475601605216587 Phases=3

New Load.load_p1ulv27726 conn=wye bus1=p1ulv27726.1.2 kV=0.2080002494301389 Vminpu=0.8 Vmaxpu=1.2 model=1 kW=3.81004 kvar=0.769665394243948 Phases=2

New Load.load_p1ulv28966 conn=wye bus1=p1ulv28966.1.2.3 kV=0.48 Vminpu=0.8 Vmaxpu=1.2 model=1 kW=150.872 kvar=30.6358662471735 Phases=3

New Load.load_p1ulv29615 conn=wye bus1=p1ulv29615.1.2.3 kV=0.48 Vminpu=0.8 Vmaxpu=1.2 model=1 kW=36.4404 kvar=7.39953881696737 Phases=3

New Load.load_p1ulv29616 conn=wye bus1=p1ulv29616.1.2.3 kV=0.48 Vminpu=0.8 Vmaxpu=1.2 model=1 kW=38.4604 kvar=7.8097173114480585 Phases=3

New Load.load_p1ulv29617 conn=wye bus1=p1ulv29617.1.2.3 kV=0.48 Vminpu=0.8 Vmaxpu=1.2 model=1 kW=29.140299999999996 kvar=5.9171902884730745 Phases=3

New Load.load_p1ulv30874 conn=wye bus1=p1ulv30874.1.2.3 kV=0.48 Vminpu=0.8 Vmaxpu=1.2 model=1 kW=24.2902 kvar=4.9323354785320905 Phases=3

New Load.load_p1ulv30875 conn=wye bus1=p1ulv30875.1.2.3 kV=0.48 Vminpu=0.8 Vmaxpu=1.2 model=1 kW=24.1102 kvar=4.89578491961797 Phases=3

New Load.load_p1ulv30876 conn=wye bus1=p1ulv30876.1.2.3 kV=0.48 Vminpu=0.8 Vmaxpu=1.2 model=1 kW=33.7603 kvar=6.855321300602176 Phases=3

New Load.load_p1ulv31493 conn=wye bus1=p1ulv31493.1.2.3 kV=0.48 Vminpu=0.8 Vmaxpu=1.2 model=1 kW=32.1103 kvar=6.520274510556068 Phases=3

New Load.load_p1ulv31494 conn=wye bus1=p1ulv31494.1.2.3 kV=0.48 Vminpu=0.8 Vmaxpu=1.2 model=1 kW=36.2304 kvar=7.356896498234229 Phases=3

New Load.load_p1ulv31495 conn=wye bus1=p1ulv31495.1.2.3 kV=0.48 Vminpu=0.8 Vmaxpu=1.2 model=1 kW=19.830200000000005 kvar=4.026693852104433 Phases=3

New Load.load_p1ulv32126 conn=wye bus1=p1ulv32126.1.2.3 kV=0.48 Vminpu=0.8 Vmaxpu=1.2 model=1 kW=33.5403 kvar=6.810648395262694 Phases=3

New Load.load_p1ulv32783 conn=wye bus1=p1ulv32783.1.2.3 kV=0.48 Vminpu=0.8 Vmaxpu=1.2 model=1 kW=34.0103 kvar=6.906085965760677 Phases=3

New Load.load_p1ulv33446 conn=wye bus1=p1ulv33446.1.2 kV=0.2080002494301389 Vminpu=0.8 Vmaxpu=1.2 model=1 kW=6.25006 kvar=1.269128812482165 Phases=2

New Load.load_p1ulv34719 conn=wye bus1=p1ulv34719.1.2.3 kV=0.48 Vminpu=0.8 Vmaxpu=1.2 model=1 kW=32.780300000000004 kvar=6.65632381318085 Phases=3

New Load.load_p1ulv36618 conn=wye bus1=p1ulv36618.1.2 kV=0.2080002494301389 Vminpu=0.8 Vmaxpu=1.2 model=1 kW=2.45002 kvar=0.500055880917707 Phases=2

New Load.load_p1ulv37256 conn=wye bus1=p1ulv37256.1.2 kV=0.2080002494301389 Vminpu=0.8 Vmaxpu=1.2 model=1 kW=5.84006 kvar=1.1889270495062174 Phases=2

New Load.load_p1ulv37257 conn=wye bus1=p1ulv37257.1.2.3 kV=0.48 Vminpu=0.8 Vmaxpu=1.2 model=1 kW=34.0903 kvar=6.922330658611396 Phases=3

New Load.load_p1ulv39763 conn=wye bus1=p1ulv39763.1.2.3 kV=0.48 Vminpu=0.8 Vmaxpu=1.2 model=1 kW=27.450300000000002 kvar=5.574021152001609 Phases=3

New Load.load_p1ulv40415 conn=wye bus1=p1ulv40415.1.2.3 kV=0.48 Vminpu=0.8 Vmaxpu=1.2 model=1 kW=29.5403 kvar=5.998413752726677 Phases=3

New Load.load_p1ulv41622 conn=wye bus1=p1ulv41622.1.2.3 kV=0.48 Vminpu=0.8 Vmaxpu=1.2 model=1 kW=36.4004 kvar=7.3914164705420085 Phases=3

New Load.load_p1ulv42864 conn=wye bus1=p1ulv42864.1.2.3 kV=0.48 Vminpu=0.8 Vmaxpu=1.2 model=1 kW=34.340300000000006 kvar=6.973095323769898 Phases=3

New Load.load_p1ulv42865 conn=wye bus1=p1ulv42865.1.2.3 kV=0.48 Vminpu=0.8 Vmaxpu=1.2 model=1 kW=31.4603 kvar=6.388286381143964 Phases=3

New Load.load_p1ulv42866 conn=wye bus1=p1ulv42866.1.2 kV=0.2080002494301389 Vminpu=0.8 Vmaxpu=1.2 model=1 kW=3.18003 kvar=0.6507075106785133 Phases=2

New Load.load_p1ulv44825 conn=wye bus1=p1ulv44825.1.2.3 kV=0.48 Vminpu=0.8 Vmaxpu=1.2 model=1 kW=43.7604 kvar=8.885928212808281 Phases=3

New Load.load_p1ulv47323 conn=wye bus1=p1ulv47323.1.2.3 kV=0.48 Vminpu=0.8 Vmaxpu=1.2 model=1 kW=42.010400000000004 kvar=8.530575556698773 Phases=3

New Load.load_p1ulv47952 conn=wye bus1=p1ulv47952.1.2.3 kV=0.48 Vminpu=0.8 Vmaxpu=1.2 model=1 kW=27.180300000000003 kvar=5.519195313630427 Phases=3

New Load.load_p1ulv48564 conn=wye bus1=p1ulv48564.1.2.3 kV=0.48 Vminpu=0.8 Vmaxpu=1.2 model=1 kW=31.0403 kvar=6.303001743677683 Phases=3

New Load.load_p1ulv48565 conn=wye bus1=p1ulv48565.1.2 kV=0.2080002494301389 Vminpu=0.8 Vmaxpu=1.2 model=1 kW=5.130050000000001 kvar=1.0390137833913942 Phases=2

New Load.load_p1ulv49169 conn=wye bus1=p1ulv49169.1.2.3 kV=0.48 Vminpu=0.8 Vmaxpu=1.2 model=1 kW=41.3104 kvar=8.388434494254973 Phases=3

New Load.load_p1ulv49170 conn=wye bus1=p1ulv49170.1.2.3 kV=0.48 Vminpu=0.8 Vmaxpu=1.2 model=1 kW=31.4003 kvar=6.376102861505924 Phases=3

New Load.load_p1ulv49781 conn=wye bus1=p1ulv49781.1.2 kV=0.2080002494301389 Vminpu=0.8 Vmaxpu=1.2 model=1 kW=4.80005 kvar=0.9797035253585847 Phases=2

New Load.load_p1ulv50389 conn=wye bus1=p1ulv50389.1.2.3 kV=0.48 Vminpu=0.8 Vmaxpu=1.2 model=1 kW=33.48030000000001 kvar=6.798464875624655 Phases=3

New Load.load_p1ulv50390 conn=wye bus1=p1ulv50390.1.2 kV=0.2080002494301389 Vminpu=0.8 Vmaxpu=1.2 model=1 kW=3.06003 kvar=0.6197626431693976 Phases=2

New Load.load_p1ulv51643 conn=wye bus1=p1ulv51643.1.2 kV=0.2080002494301389 Vminpu=0.8 Vmaxpu=1.2 model=1 kW=2.98003 kvar=0.6004270372747549 Phases=2

New Load.load_p1ulv51645 conn=wye bus1=p1ulv51645.1.2.3 kV=0.48 Vminpu=0.8 Vmaxpu=1.2 model=1 kW=37.1904 kvar=7.551832812442872 Phases=3

New Load.load_p1ulv51646 conn=wye bus1=p1ulv51646.1.2.3 kV=0.48 Vminpu=0.8 Vmaxpu=1.2 model=1 kW=32.3103 kvar=6.560886242682869 Phases=3

New Load.load_p1ulv52294 conn=wye bus1=p1ulv52294.1.2.3 kV=0.48 Vminpu=0.8 Vmaxpu=1.2 model=1 kW=31.020300000000002 kvar=6.298940570465003 Phases=3

New Load.load_p1ulv52295 conn=wye bus1=p1ulv52295.1.2.3 kV=0.48 Vminpu=0.8 Vmaxpu=1.2 model=1 kW=33.3603 kvar=6.774097836348574 Phases=3

New Load.load_p1ulv52296 conn=wye bus1=p1ulv52296.1.2.3 kV=0.48 Vminpu=0.8 Vmaxpu=1.2 model=1 kW=35.2904 kvar=7.166021357238264 Phases=3

New Load.load_p1ulv52297 conn=wye bus1=p1ulv52297.1.2.3 kV=0.48 Vminpu=0.8 Vmaxpu=1.2 model=1 kW=33.2503 kvar=6.751761383678834 Phases=3

New Load.load_p1ulv52950 conn=wye bus1=p1ulv52950.1.2.3 kV=0.48 Vminpu=0.8 Vmaxpu=1.2 model=1 kW=32.2003 kvar=6.538549790013128 Phases=3

New Load.load_p1ulv53551 conn=wye bus1=p1ulv53551.1.2.3 kV=0.48 Vminpu=0.8 Vmaxpu=1.2 model=1 kW=24.950200000000002 kvar=5.066354194550534 Phases=3

New Load.load_p1ulv53571 conn=wye bus1=p1ulv53571.1.2.3 kV=0.48 Vminpu=0.8 Vmaxpu=1.2 model=1 kW=34.80029999999999 kvar=7.06650230766154 Phases=3

New Load.load_p1ulv54190 conn=wye bus1=p1ulv54190.1.2.3 kV=0.48 Vminpu=0.8 Vmaxpu=1.2 model=1 kW=30.480300000000003 kvar=6.189288893722642 Phases=3

New Load.load_p1ulv54191 conn=wye bus1=p1ulv54191.1.2 kV=0.2080002494301389 Vminpu=0.8 Vmaxpu=1.2 model=1 kW=4.32004 kvar=0.8794793907851697 Phases=2

New Load.load_p1ulv54192 conn=wye bus1=p1ulv54192.1.2 kV=0.2080002494301389 Vminpu=0.8 Vmaxpu=1.2 model=1 kW=6.09006 kvar=1.2398223763310365 Phases=2

New Load.load_p1ulv54193 conn=wye bus1=p1ulv54193.1.2.3 kV=0.48 Vminpu=0.8 Vmaxpu=1.2 model=1 kW=31.840299999999996 kvar=6.465448672184888 Phases=3

New Load.load_p1ulv54844 conn=wye bus1=p1ulv54844.1.2.3 kV=0.48 Vminpu=0.8 Vmaxpu=1.2 model=1 kW=24.1702 kvar=4.907968439256011 Phases=3

New Load.load_p1ulv54845 conn=wye bus1=p1ulv54845.1.2.3 kV=0.48 Vminpu=0.8 Vmaxpu=1.2 model=1 kW=24.640199999999997 kvar=5.003406009753993 Phases=3

New Load.load_p1ulv55433 conn=wye bus1=p1ulv55433.1.2 kV=0.2080002494301389 Vminpu=0.8 Vmaxpu=1.2 model=1 kW=4.43004 kvar=0.8995579889550643 Phases=2

New Load.load_p1ulv56022 conn=wye bus1=p1ulv56022.1.2.3 kV=0.48 Vminpu=0.8 Vmaxpu=1.2 model=1 kW=35.4804 kvar=7.204602502758726 Phases=3

New Load.load_p1ulv57269 conn=wye bus1=p1ulv57269.1.2.3 kV=0.48 Vminpu=0.8 Vmaxpu=1.2 model=1 kW=39.1204 kvar=7.9437360274665005 Phases=3

New Load.load_p1ulv57270 conn=wye bus1=p1ulv57270.1.2.3 kV=0.48 Vminpu=0.8 Vmaxpu=1.2 model=1 kW=33.9003 kvar=6.883749513090936 Phases=3

New Load.load_p1ulv58438 conn=wye bus1=p1ulv58438.1.2.3 kV=0.48 Vminpu=0.8 Vmaxpu=1.2 model=1 kW=39.73040000000001 kvar=8.067601810453246 Phases=3

New Load.load_p1ulv58439 conn=wye bus1=p1ulv58439.1.2.3 kV=0.48 Vminpu=0.8 Vmaxpu=1.2 model=1 kW=29.830299999999998 kvar=6.057300764310537 Phases=3

New Load.load_p1ulv59644 conn=wye bus1=p1ulv59644.1.2.3 kV=0.48 Vminpu=0.8 Vmaxpu=1.2 model=1 kW=21.6502 kvar=4.39626061445832 Phases=3

New Load.load_p1ulv60283 conn=wye bus1=p1ulv60283.1.2.3 kV=0.48 Vminpu=0.8 Vmaxpu=1.2 model=1 kW=32.3803 kvar=6.575100348927248 Phases=3

New Load.load_p1ulv60855 conn=wye bus1=p1ulv60855.1.2.3 kV=0.48 Vminpu=0.8 Vmaxpu=1.2 model=1 kW=32.8603 kvar=6.672568506031572 Phases=3

New Load.load_p1ulv61515 conn=wye bus1=p1ulv61515.1.2.3 kV=0.48 Vminpu=0.8 Vmaxpu=1.2 model=1 kW=30.2903 kvar=6.15070774820218 Phases=3

New Load.load_p1ulv61516 conn=wye bus1=p1ulv61516.1.2.3 kV=0.48 Vminpu=0.8 Vmaxpu=1.2 model=1 kW=25.4603 kvar=5.16993441733994 Phases=3

New Load.load_p1ulv62789 conn=wye bus1=p1ulv62789.1.2.3 kV=0.48 Vminpu=0.8 Vmaxpu=1.2 model=1 kW=34.8403 kvar=7.074624654086899 Phases=3

New Load.load_p1ulv63430 conn=wye bus1=p1ulv63430.1.2 kV=0.2080002494301389 Vminpu=0.8 Vmaxpu=1.2 model=1 kW=2.31002 kvar=0.4702768914874764 Phases=2

New Load.load_p1ulv63431 conn=wye bus1=p1ulv63431.1.2.3 kV=0.48 Vminpu=0.8 Vmaxpu=1.2 model=1 kW=31.470300000000005 kvar=6.390316967750305 Phases=3

New Load.load_p1ulv63432 conn=wye bus1=p1ulv63432.1.2.3 kV=0.48 Vminpu=0.8 Vmaxpu=1.2 model=1 kW=33.6103 kvar=6.8248625015070745 Phases=3

New Load.load_p1ulv64036 conn=wye bus1=p1ulv64036.1.2 kV=0.2080002494301389 Vminpu=0.8 Vmaxpu=1.2 model=1 kW=6.52007 kvar=1.3205412420301414 Phases=2

New Load.load_p1ulv64051 conn=wye bus1=p1ulv64051.1.2 kV=0.2080002494301389 Vminpu=0.8 Vmaxpu=1.2 model=1 kW=5.43005 kvar=1.0997742311487098 Phases=2

New Load.load_p1ulv64053 conn=wye bus1=p1ulv64053.1.2.3 kV=0.48 Vminpu=0.8 Vmaxpu=1.2 model=1 kW=42.5704 kvar=8.644288406653816 Phases=3

New Load.load_p1ulv64675 conn=wye bus1=p1ulv64675.1.2.3 kV=0.48 Vminpu=0.8 Vmaxpu=1.2 model=1 kW=34.3203 kvar=6.969034150557217 Phases=3

New Load.load_p1ulv64676 conn=wye bus1=p1ulv64676.1.2.3 kV=0.48 Vminpu=0.8 Vmaxpu=1.2 model=1 kW=37.6704 kvar=7.649300969547195 Phases=3

New Load.load_p1ulv65323 conn=wye bus1=p1ulv65323.1.2.3 kV=0.48 Vminpu=0.8 Vmaxpu=1.2 model=1 kW=32.830299999999994 kvar=6.666476746212551 Phases=3

