New Load.load_p2ulv122 conn=wye bus1=p2ulv122.1.2 kV=0.2080002494301389 Vminpu=0.8 Vmaxpu=1.2 model=1 kW=0.510005 kvar=0.1699717353476919 Phases=2

New Load.load_p2ulv833 conn=wye bus1=p2ulv833.1.2 kV=0.2080002494301389 Vminpu=0.8 Vmaxpu=1.2 model=1 kW=3.25003 kvar=1.0705380209300788 Phases=2

New Load.load_p2ulv1340 conn=wye bus1=p2ulv1340.1.2.3 kV=0.48 Vminpu=0.8 Vmaxpu=1.2 model=1 kW=21.2002 kvar=4.304884217173018 Phases=3

New Load.load_p2ulv1341 conn=wye bus1=p2ulv1341.1.2 kV=0.2080002494301389 Vminpu=0.8 Vmaxpu=1.2 model=1 kW=2.92003 kvar=0.9597674476454359 Phases=2

New Load.load_p2ulv1593 conn=wye bus1=p2ulv1593.1.2 kV=0.2080002494301389 Vminpu=0.8 Vmaxpu=1.2 model=1 kW=5.40005 kvar=1.0993492384814623 Phases=2

New Load.load_p2ulv2819 conn=wye bus1=p2ulv2819.1.2 kV=0.2080002494301389 Vminpu=0.8 Vmaxpu=1.2 model=1 kW=2.07002 kvar=0.6796478343533433 Phases=2

New Load.load_p2ulv2820 conn=wye bus1=p2ulv2820.1.2.3 kV=0.48 Vminpu=0.8 Vmaxpu=1.2 model=1 kW=123.85100000000001 kvar=40.70785511050739 Phases=3

New Load.load_p2ulv2821 conn=wye bus1=p2ulv2821.1.2 kV=0.2080002494301389 Vminpu=0.8 Vmaxpu=1.2 model=1 kW=4.93005 kvar=1.0010893498586726 Phases=2

New Load.load_p2ulv3050 conn=wye bus1=p2ulv3050.1.2 kV=0.2080002494301389 Vminpu=0.8 Vmaxpu=1.2 model=1 kW=5.39005 kvar=1.088842888327837 Phases=2

New Load.load_p2umv3 conn=wye bus1=p2umv3.1.2.3 kV=12.47 Vminpu=0.8 Vmaxpu=1.2 model=1 kW=1219.48 kvar=400.8236925835201 Phases=3

New Load.load_p2ulv3999 conn=wye bus1=p2ulv3999.1.2.3 kV=0.48 Vminpu=0.8 Vmaxpu=1.2 model=1 kW=140.691 kvar=28.568526023258695 Phases=3

New Load.load_p2ulv4495 conn=wye bus1=p2ulv4495.1.2 kV=0.2080002494301389 Vminpu=0.8 Vmaxpu=1.2 model=1 kW=5.05005 kvar=1.0307292191200343 Phases=2

New Load.load_p2ulv6181 conn=wye bus1=p2ulv6181.1.2 kV=0.2080002494301389 Vminpu=0.8 Vmaxpu=1.2 model=1 kW=12.3901 kvar=2.522392755568775 Phases=2

New Load.load_p2ulv6446 conn=wye bus1=p2ulv6446.1.2 kV=0.2080002494301389 Vminpu=0.8 Vmaxpu=1.2 model=1 kW=5.71006 kvar=1.1594771357398026 Phases=2

New Load.load_p2ulv6669 conn=wye bus1=p2ulv6669.1.2 kV=0.2080002494301389 Vminpu=0.8 Vmaxpu=1.2 model=1 kW=4.840050000000001 kvar=0.9802786838926555 Phases=2

New Load.load_p2ulv7387 conn=wye bus1=p2ulv7387.1.2.3 kV=0.48 Vminpu=0.8 Vmaxpu=1.2 model=1 kW=353.284 kvar=116.1188354140095 Phases=3

New Load.load_p2ulv7389 conn=wye bus1=p2ulv7389.1.2 kV=0.2080002494301389 Vminpu=0.8 Vmaxpu=1.2 model=1 kW=12.930100000000001 kvar=4.249918348373218 Phases=2

New Load.load_p2ulv7626 conn=wye bus1=p2ulv7626.1.2.3 kV=0.48 Vminpu=0.8 Vmaxpu=1.2 model=1 kW=250.36300000000003 kvar=82.29033862489572 Phases=3

New Load.load_p2ulv8112 conn=wye bus1=p2ulv8112.1.2 kV=0.2080002494301389 Vminpu=0.8 Vmaxpu=1.2 model=1 kW=16.3302 kvar=3.3159885398854168 Phases=2

New Load.load_p2umv8 conn=wye bus1=p2umv8.1.2.3 kV=12.47 Vminpu=0.8 Vmaxpu=1.2 model=1 kW=1389.79 kvar=282.2088959625328 Phases=3

New Load.load_p2ulv9696 conn=wye bus1=p2ulv9696.1.2 kV=0.2080002494301389 Vminpu=0.8 Vmaxpu=1.2 model=1 kW=5.67006 kvar=1.1513547893144422 Phases=2

New Load.load_p2ulv10187 conn=wye bus1=p2ulv10187.1.2 kV=0.2080002494301389 Vminpu=0.8 Vmaxpu=1.2 model=1 kW=1.22001 kvar=0.40013137987912967 Phases=2

New Load.load_p2ulv10671 conn=wye bus1=p2ulv10671.1.2 kV=0.2080002494301389 Vminpu=0.8 Vmaxpu=1.2 model=1 kW=3.50004 kvar=0.7107134345654403 Phases=2

New Load.load_p2ulv11158 conn=wye bus1=p2ulv11158.1.2 kV=0.2080002494301389 Vminpu=0.8 Vmaxpu=1.2 model=1 kW=2.15002 kvar=0.7097245370751488 Phases=2

New Load.load_p2ulv11159 conn=wye bus1=p2ulv11159.1.2 kV=0.2080002494301389 Vminpu=0.8 Vmaxpu=1.2 model=1 kW=11.920100000000001 kvar=2.4204795406233943 Phases=2

New Load.load_p2ulv11628 conn=wye bus1=p2ulv11628.1.2 kV=0.2080002494301389 Vminpu=0.8 Vmaxpu=1.2 model=1 kW=5.27005 kvar=1.0701292944742342 Phases=2

New Load.load_p2ulv11866 conn=wye bus1=p2ulv11866.1.2.3 kV=0.48 Vminpu=0.8 Vmaxpu=1.2 model=1 kW=53.4505 kvar=10.853586940217845 Phases=3

New Load.load_p2ulv11867 conn=wye bus1=p2ulv11867.1.2 kV=0.2080002494301389 Vminpu=0.8 Vmaxpu=1.2 model=1 kW=6.990070000000001 kvar=1.4193942519379346 Phases=2

New Load.load_p2ulv12090 conn=wye bus1=p2ulv12090.1.2.3 kV=0.48 Vminpu=0.8 Vmaxpu=1.2 model=1 kW=62.78059999999999 kvar=20.634985333592137 Phases=3

New Load.load_p2ulv13051 conn=wye bus1=p2ulv13051.1.2 kV=0.2080002494301389 Vminpu=0.8 Vmaxpu=1.2 model=1 kW=5.54006 kvar=1.1307416199202263 Phases=2

New Load.load_p2ulv13288 conn=wye bus1=p2ulv13288.1.2 kV=0.2080002494301389 Vminpu=0.8 Vmaxpu=1.2 model=1 kW=5.25005 kvar=1.7293311559536253 Phases=2

New Load.load_p2ulv14852 conn=wye bus1=p2ulv14852.1.2 kV=0.2080002494301389 Vminpu=0.8 Vmaxpu=1.2 model=1 kW=1.48001 kvar=0.49012233062304306 Phases=2

New Load.load_p2ulv15087 conn=wye bus1=p2ulv15087.1.2 kV=0.2080002494301389 Vminpu=0.8 Vmaxpu=1.2 model=1 kW=5.460050000000001 kvar=1.1087104399946952 Phases=2

New Load.load_p2ulv15088 conn=wye bus1=p2ulv15088.1.2 kV=0.2080002494301389 Vminpu=0.8 Vmaxpu=1.2 model=1 kW=5.27005 kvar=1.0701292944742342 Phases=2

New Load.load_p2ulv15318 conn=wye bus1=p2ulv15318.1.2 kV=0.2080002494301389 Vminpu=0.8 Vmaxpu=1.2 model=1 kW=5.44005 kvar=1.1103293013878959 Phases=2

New Load.load_p2ulv15321 conn=wye bus1=p2ulv15321.1.2 kV=0.2080002494301389 Vminpu=0.8 Vmaxpu=1.2 model=1 kW=0.730007 kvar=0.23994169756930633 Phases=2

New Load.load_p2ulv15322 conn=wye bus1=p2ulv15322.1.2 kV=0.2080002494301389 Vminpu=0.8 Vmaxpu=1.2 model=1 kW=4.90005 kvar=1.0001138028631646 Phases=2

New Load.load_p2ulv15556 conn=wye bus1=p2ulv15556.1.2.3 kV=0.48 Vminpu=0.8 Vmaxpu=1.2 model=1 kW=153.102 kvar=31.088687060387326 Phases=3

New Load.load_p2ulv15773 conn=wye bus1=p2ulv15773.1.2 kV=0.2080002494301389 Vminpu=0.8 Vmaxpu=1.2 model=1 kW=8.43008 kvar=2.7708333013862303 Phases=2

New Load.load_p2ulv15774 conn=wye bus1=p2ulv15774.1.2 kV=0.2080002494301389 Vminpu=0.8 Vmaxpu=1.2 model=1 kW=1.38001 kvar=0.45015019350021623 Phases=2

New Load.load_p2ulv15997 conn=wye bus1=p2ulv15997.1.2 kV=0.2080002494301389 Vminpu=0.8 Vmaxpu=1.2 model=1 kW=5.72006 kvar=1.1585113559957074 Phases=2

New Load.load_p2ulv16252 conn=wye bus1=p2ulv16252.1.2 kV=0.2080002494301389 Vminpu=0.8 Vmaxpu=1.2 model=1 kW=5.71006 kvar=1.1594771357398026 Phases=2

New Load.load_p2ulv16253 conn=wye bus1=p2ulv16253.1.2 kV=0.2080002494301389 Vminpu=0.8 Vmaxpu=1.2 model=1 kW=5.14005 kvar=1.0410391316499712 Phases=2

New Load.load_p2ulv16709 conn=wye bus1=p2ulv16709.1.2 kV=0.2080002494301389 Vminpu=0.8 Vmaxpu=1.2 model=1 kW=6.94007 kvar=1.4092413189062343 Phases=2

New Load.load_p2ulv16962 conn=wye bus1=p2ulv16962.1.2 kV=0.2080002494301389 Vminpu=0.8 Vmaxpu=1.2 model=1 kW=5.32005 kvar=1.0802822275059345 Phases=2

New Load.load_p2ulv17171 conn=wye bus1=p2ulv17171.1.2 kV=0.2080002494301389 Vminpu=0.8 Vmaxpu=1.2 model=1 kW=1.90002 kvar=0.6197740383434039 Phases=2

New Load.load_p2ulv17621 conn=wye bus1=p2ulv17621.1.2 kV=0.2080002494301389 Vminpu=0.8 Vmaxpu=1.2 model=1 kW=0.490005 kvar=0.16001116456332976 Phases=2

New Load.load_p2ulv18306 conn=wye bus1=p2ulv18306.1.2.3 kV=0.48 Vminpu=0.8 Vmaxpu=1.2 model=1 kW=39.3104 kvar=7.982317172986962 Phases=3

New Load.load_p2ulv18946 conn=wye bus1=p2ulv18946.1.2 kV=0.2080002494301389 Vminpu=0.8 Vmaxpu=1.2 model=1 kW=1.0500100000000003 kvar=0.3398768410246171 Phases=2

New Load.load_p2ulv18947 conn=wye bus1=p2ulv18947.1.2 kV=0.2080002494301389 Vminpu=0.8 Vmaxpu=1.2 model=1 kW=6.90007 kvar=1.4011189724808741 Phases=2

New Load.load_p2ulv18948 conn=wye bus1=p2ulv18948.1.2 kV=0.2080002494301389 Vminpu=0.8 Vmaxpu=1.2 model=1 kW=5.40005 kvar=1.7806527363078193 Phases=2

New Load.load_p2ulv19431 conn=wye bus1=p2ulv19431.1.2 kV=0.2080002494301389 Vminpu=0.8 Vmaxpu=1.2 model=1 kW=5.39005 kvar=1.088842888327837 Phases=2

New Load.load_p2ulv19432 conn=wye bus1=p2ulv19432.1.2 kV=0.2080002494301389 Vminpu=0.8 Vmaxpu=1.2 model=1 kW=4.38004 kvar=0.8894050559233643 Phases=2

New Load.load_p2ulv19675 conn=wye bus1=p2ulv19675.1.2 kV=0.2080002494301389 Vminpu=0.8 Vmaxpu=1.2 model=1 kW=7.55008 kvar=1.5291541380118512 Phases=2

New Load.load_p2ulv19894 conn=wye bus1=p2ulv19894.1.2 kV=0.2080002494301389 Vminpu=0.8 Vmaxpu=1.2 model=1 kW=12.9501 kvar=4.261085680413354 Phases=2

New Load.load_p2ulv20326 conn=wye bus1=p2ulv20326.1.2 kV=0.2080002494301389 Vminpu=0.8 Vmaxpu=1.2 model=1 kW=18.610200000000003 kvar=6.116876934199679 Phases=2

New Load.load_p2ulv20555 conn=wye bus1=p2ulv20555.1.2 kV=0.2080002494301389 Vminpu=0.8 Vmaxpu=1.2 model=1 kW=4.670050000000001 kvar=0.9507348841529898 Phases=2

New Load.load_p2ulv20556 conn=wye bus1=p2ulv20556.1.2 kV=0.2080002494301389 Vminpu=0.8 Vmaxpu=1.2 model=1 kW=2.23002 kvar=0.45048588006212237 Phases=2

New Load.load_p2ulv20773 conn=wye bus1=p2ulv20773.1.2 kV=0.2080002494301389 Vminpu=0.8 Vmaxpu=1.2 model=1 kW=2.08002 kvar=0.6799719010737066 Phases=2

New Load.load_p2ulv21192 conn=wye bus1=p2ulv21192.1.2.3 kV=0.48 Vminpu=0.8 Vmaxpu=1.2 model=1 kW=60.950599999999994 kvar=20.033493421114816 Phases=3

New Load.load_p2ulv21445 conn=wye bus1=p2ulv21445.1.2 kV=0.2080002494301389 Vminpu=0.8 Vmaxpu=1.2 model=1 kW=2.11002 kvar=0.6897790938084932 Phases=2

New Load.load_p2ulv21675 conn=wye bus1=p2ulv21675.1.2.3 kV=0.48 Vminpu=0.8 Vmaxpu=1.2 model=1 kW=25.1303 kvar=5.102925059330718 Phases=3

New Load.load_p2ulv21676 conn=wye bus1=p2ulv21676.1.2 kV=0.2080002494301389 Vminpu=0.8 Vmaxpu=1.2 model=1 kW=5.21005 kvar=1.0606687900945995 Phases=2

New Load.load_p2ulv23054 conn=wye bus1=p2ulv23054.1.2 kV=0.2080002494301389 Vminpu=0.8 Vmaxpu=1.2 model=1 kW=2.67003 kvar=0.5393722093713369 Phases=2

New Load.load_p2ulv23055 conn=wye bus1=p2ulv23055.1.2 kV=0.2080002494301389 Vminpu=0.8 Vmaxpu=1.2 model=1 kW=5.130050000000001 kvar=1.0390137833913942 Phases=2

New Load.load_p2ulv23931 conn=wye bus1=p2ulv23931.1.2 kV=0.2080002494301389 Vminpu=0.8 Vmaxpu=1.2 model=1 kW=5.11005 kvar=1.0403106593646716 Phases=2

New Load.load_p2ulv23932 conn=wye bus1=p2ulv23932.1.2 kV=0.2080002494301389 Vminpu=0.8 Vmaxpu=1.2 model=1 kW=5.55006 kvar=1.1298884703894267 Phases=2

New Load.load_p2ulv24142 conn=wye bus1=p2ulv24142.1.2.3 kV=0.48 Vminpu=0.8 Vmaxpu=1.2 model=1 kW=240.162 kvar=48.76697405518374 Phases=3

New Load.load_p2ulv24143 conn=wye bus1=p2ulv24143.1.2 kV=0.2080002494301389 Vminpu=0.8 Vmaxpu=1.2 model=1 kW=10.3601 kvar=3.4088751251071714 Phases=2

