New Line.l(r:p3udt117lv-p3ulv262) Units=km Length=0.051225200000000005 bus1=p3udt117lv.1.2 bus2=p3ulv262.1.2 switch=n enabled=y phases=2 Linecode=1P_OH_AL_4/0_Zuzara_0_416_0_2_2_2_2

New Line.l(r:p3udm313-p3ulv17536) Units=km Length=0.0849017 bus1=p3udm313.1.2 bus2=p3ulv17536.1.2 switch=n enabled=y phases=2 Linecode=1P_OH_AL_4/0_Zuzara_0_416_0_2_2_2_2

New Line.l(r:p3udm313-p3udt117lv) Units=km Length=0.018696300000000003 bus1=p3udt117lv.1.2 bus2=p3udm313.1.2 switch=n enabled=y phases=2 Linecode=1P_OH_AL_2/0_Rucina_0_416_0_2_2_2_2

New Line.l(r:p3udm318-p3ulv266) Units=km Length=0.0220838 bus1=p3udm318.1.2 bus2=p3ulv266.1.2 switch=n enabled=y phases=2 Linecode=1P_OH_AL_2/0_Rucina_0_416_0_2_2_2_2

New Line.l(r:p3udm318-p3udt121lv) Units=km Length=0.0181093 bus1=p3udt121lv.1.2 bus2=p3udm318.1.2 switch=n enabled=y phases=2 Linecode=1P_OH_AL_2/0_Rucina_0_416_0_2_2_2_2

New Line.l(r:p3udm319-p3ulv49391) Units=km Length=0.019200100000000005 bus1=p3udm319.1.2 bus2=p3ulv49391.1.2 switch=n enabled=y phases=2 Linecode=1P_OH_AL_2/0_Rucina_0_416_0_2_2_2_2

New Line.l(r:p3udm319-p3udt121lv) Units=km Length=0.018117500000000005 bus1=p3udt121lv.1.2 bus2=p3udm319.1.2 switch=n enabled=y phases=2 Linecode=1P_OH_AL_2/0_Rucina_0_416_0_2_2_2_2

New Line.l(r:p3udm320-p3ulv267) Units=km Length=0.0299179 bus1=p3udm320.1.2 bus2=p3ulv267.1.2 switch=n enabled=y phases=2 Linecode=1P_OH_AL_4/0_Zuzara_0_416_0_2_2_2_2

New Line.l(r:p3udm320-p3udt122lv) Units=km Length=0.0388354 bus1=p3udt122lv.1.2 bus2=p3udm320.1.2 switch=n enabled=y phases=2 Linecode=1P_OH_AL_4/0_Zuzara_0_416_0_2_2_2_2

New Line.l(r:p3udm321-p3ulv30767) Units=km Length=0.0490162 bus1=p3udm321.1.2 bus2=p3ulv30767.1.2 switch=n enabled=y phases=2 Linecode=1P_OH_AL_4/0_Zuzara_0_416_0_2_2_2_2

New Line.l(r:p3udm322-p3ulv73912) Units=km Length=0.029508400000000004 bus1=p3udm322.1.2 bus2=p3ulv73912.1.2 switch=n enabled=y phases=2 Linecode=1P_OH_AL_4/0_Zuzara_0_416_0_2_2_2_2

New Line.l(r:p3udm321-p3udm322) Units=km Length=0.0194201 bus1=p3udm321.1.2 bus2=p3udm322.1.2 switch=n enabled=y phases=2 Linecode=1P_OH_AL_2/0_Rucina_0_416_0_2_2_2_2

New Line.l(r:p3udm321-p3udt122lv) Units=km Length=0.0194111 bus1=p3udt122lv.1.2 bus2=p3udm321.1.2 switch=n enabled=y phases=2 Linecode=1P_OH_AL_2/0_Rucina_0_416_0_2_2_2_2

New Line.l(r:p3udm323-p3ulv268) Units=km Length=0.0700358 bus1=p3udm323.1.2 bus2=p3ulv268.1.2 switch=n enabled=y phases=2 Linecode=1P_OH_AL_4/0_Zuzara_0_416_0_2_2_2_2

New Line.l(r:p3udm323-p3udt123lv) Units=km Length=0.0186188 bus1=p3udt123lv.1.2 bus2=p3udm323.1.2 switch=n enabled=y phases=2 Linecode=1P_OH_AL_2/0_Rucina_0_416_0_2_2_2_2

New Line.l(r:p3udm324-p3ulv14405) Units=km Length=0.0639074 bus1=p3udm324.1.2 bus2=p3ulv14405.1.2 switch=n enabled=y phases=2 Linecode=1P_OH_AL_4/0_Zuzara_0_416_0_2_2_2_2

New Line.l(r:p3udm324-p3ulv22954) Units=km Length=0.0250355 bus1=p3udm324.1.2 bus2=p3ulv22954.1.2 switch=n enabled=y phases=2 Linecode=1P_OH_AL_2/0_Rucina_0_416_0_2_2_2_2

New Line.l(r:p3udm324-p3udt123lv) Units=km Length=0.0186329 bus1=p3udt123lv.1.2 bus2=p3udm324.1.2 switch=n enabled=y phases=2 Linecode=1P_OH_AL_2/0_Rucina_0_416_0_2_2_2_2

New Line.l(r:p3udt124lv-p3ulv269) Units=km Length=0.0667297 bus1=p3udt124lv.1.2 bus2=p3ulv269.1.2 switch=n enabled=y phases=2 Linecode=1P_OH_AL_4/0_Zuzara_0_416_0_2_2_2_2

New Line.l(r:p3udm327-p3ulv44811) Units=km Length=0.104479 bus1=p3udm327.1.2 bus2=p3ulv44811.1.2 switch=n enabled=y phases=2 Linecode=1P_OH_AL_4/0_Zuzara_0_416_0_2_2_2_2

New Line.l(r:p3udm327-p3udt124lv) Units=km Length=0.0305686 bus1=p3udt124lv.1.2 bus2=p3udm327.1.2 switch=n enabled=y phases=2 Linecode=1P_OH_AL_4/0_Zuzara_0_416_0_2_2_2_2

New Line.l(r:p3udm328-p3ulv47906) Units=km Length=0.11376000000000001 bus1=p3udm328.1.2 bus2=p3ulv47906.1.2 switch=n enabled=y phases=2 Linecode=1P_OH_AL_4/0_Zuzara_0_416_0_2_2_2_2

New Line.l(r:p3udm328-p3ulv64648) Units=km Length=0.08528760000000002 bus1=p3udm328.1.2 bus2=p3ulv64648.1.2 switch=n enabled=y phases=2 Linecode=1P_OH_AL_4/0_Zuzara_0_416_0_2_2_2_2

New Line.l(r:p3udm328-p3udt124lv) Units=km Length=0.0193265 bus1=p3udt124lv.1.2 bus2=p3udm328.1.2 switch=n enabled=y phases=2 Linecode=1P_OH_AL_2/0_Rucina_0_416_0_2_2_2_2

New Line.l(r:p3udt125lv-p3ulv51657) Units=km Length=0.0339508 bus1=p3udt125lv.1.2 bus2=p3ulv51657.1.2 switch=n enabled=y phases=2 Linecode=1P_OH_AL_4/0_Zuzara_0_416_0_2_2_2_2

New Line.l(r:p3udm330-p3ulv270) Units=km Length=0.0855893 bus1=p3udm330.1.2 bus2=p3ulv270.1.2 switch=n enabled=y phases=2 Linecode=1P_OH_AL_4/0_Zuzara_0_416_0_2_2_2_2

New Line.l(r:p3udm330-p3udt125lv) Units=km Length=0.0145637 bus1=p3udt125lv.1.2 bus2=p3udm330.1.2 switch=n enabled=y phases=2 Linecode=1P_OH_AL_2/0_Rucina_0_416_0_2_2_2_2

New Line.l(r:p3udt171lv-p3ulv316) Units=km Length=0.0416592 bus1=p3udt171lv.1.2 bus2=p3ulv316.1.2 switch=n enabled=y phases=2 Linecode=1P_OH_AL_4/0_Zuzara_0_416_0_2_2_2_2

New Line.l(r:p3udm460-p3ulv40906) Units=km Length=0.0354389 bus1=p3udm460.1.2 bus2=p3ulv40906.1.2 switch=n enabled=y phases=2 Linecode=1P_OH_AL_4/0_Zuzara_0_416_0_2_2_2_2

New Line.l(r:p3udm460-p3udt171lv) Units=km Length=0.039045 bus1=p3udt171lv.1.2 bus2=p3udm460.1.2 switch=n enabled=y phases=2 Linecode=1P_OH_AL_4/0_Zuzara_0_416_0_2_2_2_2

New Line.l(r:p3udm461-p3ulv72437) Units=km Length=0.041742100000000004 bus1=p3udm461.1.2 bus2=p3ulv72437.1.2 switch=n enabled=y phases=2 Linecode=1P_OH_AL_4/0_Zuzara_0_416_0_2_2_2_2

New Line.l(r:p3udm461-p3udt171lv) Units=km Length=0.0195181 bus1=p3udt171lv.1.2 bus2=p3udm461.1.2 switch=n enabled=y phases=2 Linecode=1P_OH_AL_2/0_Rucina_0_416_0_2_2_2_2

New Line.l(r:p3udm462-p3ulv317) Units=km Length=0.0191762 bus1=p3udm462.1.2 bus2=p3ulv317.1.2 switch=n enabled=y phases=2 Linecode=1P_UG_AL_1/0_Brenau_0_416_0_2_2_2_2

New Line.l(r:p3udm462-p3ulv10539) Units=km Length=0.0243664 bus1=p3udm462.1.2 bus2=p3ulv10539.1.2 switch=n enabled=y phases=2 Linecode=1P_UG_AL_1/0_Brenau_0_416_0_2_2_2_2

New Line.l(r:p3udm462-p3udt172lv) Units=km Length=0.00833737 bus1=p3udt172lv.1.2 bus2=p3udm462.1.2 switch=n enabled=y phases=2 Linecode=1P_UG_AL_4/0_Sweetbriar_0_416_0_2_2_2_2

New Line.l(r:p3udm463-p3ulv5850) Units=km Length=0.0275924 bus1=p3udm463.1.2 bus2=p3ulv5850.1.2 switch=n enabled=y phases=2 Linecode=1P_UG_AL_1/0_Brenau_0_416_0_2_2_2_2

New Line.l(r:p3udm463-p3udt172lv) Units=km Length=0.00833737 bus1=p3udt172lv.1.2 bus2=p3udm463.1.2 switch=n enabled=y phases=2 Linecode=1P_UG_AL_1/0_Brenau_0_416_0_2_2_2_2

New Line.l(r:p3udt174lv-p3ulv15241) Units=km Length=0.0182983 bus1=p3udt174lv.1.2 bus2=p3ulv15241.1.2 switch=n enabled=y phases=2 Linecode=1P_UG_AL_1/0_Brenau_0_416_0_2_2_2_2

New Line.l(r:p3udm470-p3ulv319) Units=km Length=0.0150393 bus1=p3udm470.1.2 bus2=p3ulv319.1.2 switch=n enabled=y phases=2 Linecode=1P_UG_AL_1/0_Brenau_0_416_0_2_2_2_2

New Line.l(r:p3udm471-p3ulv9008) Units=km Length=0.0168433 bus1=p3udm471.1.2 bus2=p3ulv9008.1.2 switch=n enabled=y phases=2 Linecode=1P_UG_AL_4/0_Sweetbriar_0_416_0_2_2_2_2

New Line.l(r:p3udm470-p3udm471) Units=km Length=0.009600330000000002 bus1=p3udm470.1.2 bus2=p3udm471.1.2 switch=n enabled=y phases=2 Linecode=1P_UG_AL_4/0_Sweetbriar_0_416_0_2_2_2_2

New Line.l(r:p3udm470-p3udt174lv) Units=km Length=0.009600330000000002 bus1=p3udt174lv.1.2 bus2=p3udm470.1.2 switch=n enabled=y phases=2 Linecode=1P_UG_AL_4/0_Sweetbriar_0_416_0_2_2_2_2

New Line.l(r:p3udm473-p3ulv35534) Units=km Length=0.0146315 bus1=p3udm473.1.2 bus2=p3ulv35534.1.2 switch=n enabled=y phases=2 Linecode=1P_UG_AL_1/0_Brenau_0_416_0_2_2_2_2

New Line.l(r:p3udm473-p3udt174lv) Units=km Length=0.009600330000000002 bus1=p3udt174lv.1.2 bus2=p3udm473.1.2 switch=n enabled=y phases=2 Linecode=1P_UG_AL_1/0_Brenau_0_416_0_2_2_2_2

New Line.l(r:p3udt176lv-p3ulv321) Units=km Length=0.0159601 bus1=p3udt176lv.1.2 bus2=p3ulv321.1.2 switch=n enabled=y phases=2 Linecode=1P_UG_AL_1/0_Brenau_0_416_0_2_2_2_2

New Line.l(r:p3udm477-p3ulv2652) Units=km Length=0.0151008 bus1=p3udm477.1.2 bus2=p3ulv2652.1.2 switch=n enabled=y phases=2 Linecode=1P_UG_AL_1/0_Brenau_0_416_0_2_2_2_2

New Line.l(r:p3udm481-p3ulv73202) Units=km Length=0.013270900000000002 bus1=p3udm481.1.2 bus2=p3ulv73202.1.2 switch=n enabled=y phases=2 Linecode=1P_UG_AL_1/0_Brenau_0_416_0_2_2_2_2

New Line.l(r:p3udm477-p3udm481) Units=km Length=0.06586990000000001 bus1=p3udm477.1.2 bus2=p3udm481.1.2 switch=n enabled=y phases=2 Linecode=1P_UG_AL_1/0_Brenau_0_416_0_2_2_2_2

New Line.l(r:p3udm477-p3udt176lv) Units=km Length=0.009834890000000002 bus1=p3udt176lv.1.2 bus2=p3udm477.1.2 switch=n enabled=y phases=2 Linecode=1P_UG_AL_4/0_Sweetbriar_0_416_0_2_2_2_2

New Line.l(r:p3udm479-p3ulv16060) Units=km Length=0.015151 bus1=p3udm479.1.2 bus2=p3ulv16060.1.2 switch=n enabled=y phases=2 Linecode=1P_UG_AL_1/0_Brenau_0_416_0_2_2_2_2

New Line.l(r:p3udm478-p3ulv6638) Units=km Length=0.016474 bus1=p3udm478.1.2 bus2=p3ulv6638.1.2 switch=n enabled=y phases=2 Linecode=1P_UG_AL_1/0_Brenau_0_416_0_2_2_2_2

New Line.l(r:p3udm478-p3ulv44870) Units=km Length=0.0172176 bus1=p3udm478.1.2 bus2=p3ulv44870.1.2 switch=n enabled=y phases=2 Linecode=1P_UG_AL_1/0_Brenau_0_416_0_2_2_2_2

New Line.l(r:p3udm478-p3udm479) Units=km Length=0.009834890000000002 bus1=p3udm479.1.2 bus2=p3udm478.1.2 switch=n enabled=y phases=2 Linecode=1P_UG_AL_4/0_Sweetbriar_0_416_0_2_2_2_2

New Line.l(r:p3udm479-p3udt176lv) Units=km Length=0.0098452 bus1=p3udt176lv.1.2 bus2=p3udm479.1.2 switch=n enabled=y phases=2 Linecode=1P_UG_AL_4/0_Sweetbriar_0_416_0_2_2_2_2

New Line.l(r:p3udt177lv-p3ulv18363) Units=km Length=0.0169732 bus1=p3udt177lv.1.2 bus2=p3ulv18363.1.2 switch=n enabled=y phases=2 Linecode=1P_UG_AL_1/0_Brenau_0_416_0_2_2_2_2

New Line.l(r:p3udm482-p3ulv322) Units=km Length=0.0152606 bus1=p3udm482.1.2 bus2=p3ulv322.1.2 switch=n enabled=y phases=2 Linecode=1P_UG_AL_1/0_Brenau_0_416_0_2_2_2_2

New Line.l(r:p3udm482-p3udt177lv) Units=km Length=0.00937514 bus1=p3udt177lv.1.2 bus2=p3udm482.1.2 switch=n enabled=y phases=2 Linecode=1P_UG_AL_1/0_Brenau_0_416_0_2_2_2_2

New Line.l(r:p3udt196lv-p3ulv342) Units=km Length=0.0215202 bus1=p3udt196lv.1.2 bus2=p3ulv342.1.2 switch=n enabled=y phases=2 Linecode=1P_OH_AL_2/0_Rucina_0_416_0_2_2_2_2

New Line.l(r:p3udt196lv-p3ulv72464) Units=km Length=0.0208982 bus1=p3udt196lv.1.2 bus2=p3ulv72464.1.2 switch=n enabled=y phases=2 Linecode=1P_OH_AL_2/0_Rucina_0_416_0_2_2_2_2

New Line.l(r:p3udt199lv-p3ulv67836) Units=km Length=0.012283500000000001 bus1=p3udt199lv.1.2 bus2=p3ulv67836.1.2 switch=n enabled=y phases=2 Linecode=1P_UG_AL_1/0_Brenau_0_416_0_2_2_2_2

New Line.l(r:p3udt199lv-p3ulv77042) Units=km Length=0.0187822 bus1=p3udt199lv.1.2 bus2=p3ulv77042.1.2 switch=n enabled=y phases=2 Linecode=1P_UG_AL_1/0_Brenau_0_416_0_2_2_2_2

New Line.l(r:p3udm575-p3ulv345) Units=km Length=0.0188037 bus1=p3udm575.1.2 bus2=p3ulv345.1.2 switch=n enabled=y phases=2 Linecode=1P_UG_AL_1/0_Brenau_0_416_0_2_2_2_2

New Line.l(r:p3udm575-p3ulv63254) Units=km Length=0.0129187 bus1=p3udm575.1.2 bus2=p3ulv63254.1.2 switch=n enabled=y phases=2 Linecode=1P_UG_AL_1/0_Brenau_0_416_0_2_2_2_2

New Line.l(r:p3udm575-p3udt199lv) Units=km Length=0.0199249 bus1=p3udt199lv.1.2 bus2=p3udm575.1.2 switch=n enabled=y phases=2 Linecode=1P_UG_AL_4/0_Sweetbriar_0_416_0_2_2_2_2

New Line.l(r:p3udm579-p3ulv80106) Units=km Length=0.013138800000000003 bus1=p3udm579.1.2 bus2=p3ulv80106.1.2 switch=n enabled=y phases=2 Linecode=1P_UG_AL_1/0_Brenau_0_416_0_2_2_2_2

New Line.l(r:p3udm579-p3udt199lv) Units=km Length=0.00996266 bus1=p3udt199lv.1.2 bus2=p3udm579.1.2 switch=n enabled=y phases=2 Linecode=1P_UG_AL_1/0_Brenau_0_416_0_2_2_2_2

New Line.l(r:p3udt201lv-p3ulv347) Units=km Length=0.0133454 bus1=p3udt201lv.1.2 bus2=p3ulv347.1.2 switch=n enabled=y phases=2 Linecode=1P_UG_AL_1/0_Brenau_0_416_0_2_2_2_2

New Line.l(r:p3udt201lv-p3ulv19134) Units=km Length=0.0224505 bus1=p3udt201lv.1.2 bus2=p3ulv19134.1.2 switch=n enabled=y phases=2 Linecode=1P_UG_AL_1/0_Brenau_0_416_0_2_2_2_2

New Line.l(r:p3udt201lv-p3ulv44893) Units=km Length=0.018858 bus1=p3udt201lv.1.2 bus2=p3ulv44893.1.2 switch=n enabled=y phases=2 Linecode=1P_UG_AL_1/0_Brenau_0_416_0_2_2_2_2

New Line.l(r:p3udt202lv-p3ulv50956) Units=km Length=0.0150453 bus1=p3udt202lv.1.2 bus2=p3ulv50956.1.2 switch=n enabled=y phases=2 Linecode=1P_UG_AL_1/0_Brenau_0_416_0_2_2_2_2

New Line.l(r:p3udm587-p3ulv348) Units=km Length=0.013027500000000001 bus1=p3udm587.1.2 bus2=p3ulv348.1.2 switch=n enabled=y phases=2 Linecode=1P_UG_AL_1/0_Brenau_0_416_0_2_2_2_2

New Line.l(r:p3udm587-p3ulv47982) Units=km Length=0.0171896 bus1=p3udm587.1.2 bus2=p3ulv47982.1.2 switch=n enabled=y phases=2 Linecode=1P_UG_AL_1/0_Brenau_0_416_0_2_2_2_2

New Line.l(r:p3udm591-p3ulv79359) Units=km Length=0.0180639 bus1=p3udm591.1.2 bus2=p3ulv79359.1.2 switch=n enabled=y phases=2 Linecode=1P_UG_AL_1/0_Brenau_0_416_0_2_2_2_2

New Line.l(r:p3udm587-p3udm591) Units=km Length=0.0194425 bus1=p3udm587.1.2 bus2=p3udm591.1.2 switch=n enabled=y phases=2 Linecode=1P_UG_AL_1/0_Brenau_0_416_0_2_2_2_2

New Line.l(r:p3udm587-p3udt202lv) Units=km Length=0.00997046 bus1=p3udt202lv.1.2 bus2=p3udm587.1.2 switch=n enabled=y phases=2 Linecode=1P_UG_AL_4/0_Sweetbriar_0_416_0_2_2_2_2

New Line.l(r:p3udm588-p3ulv1101) Units=km Length=0.0152431 bus1=p3udm588.1.2 bus2=p3ulv1101.1.2 switch=n enabled=y phases=2 Linecode=1P_UG_AL_1/0_Brenau_0_416_0_2_2_2_2

New Line.l(r:p3udm588-p3udt202lv) Units=km Length=0.0199621 bus1=p3udt202lv.1.2 bus2=p3udm588.1.2 switch=n enabled=y phases=2 Linecode=1P_UG_AL_1/0_Brenau_0_416_0_2_2_2_2

New Line.l(r:p3udm2976-p3ulv1022) Units=km Length=0.0327963 bus1=p3udm2976.1.2 bus2=p3ulv1022.1.2 switch=n enabled=y phases=2 Linecode=1P_OH_AL_4/0_Zuzara_0_416_0_2_2_2_2

New Line.l(r:p3udm2977-p3ulv12086) Units=km Length=0.0322335 bus1=p3udm2977.1.2 bus2=p3ulv12086.1.2 switch=n enabled=y phases=2 Linecode=1P_OH_AL_4/0_Zuzara_0_416_0_2_2_2_2

New Line.l(r:p3udm2976-p3udm2977) Units=km Length=0.018117500000000005 bus1=p3udm2976.1.2 bus2=p3udm2977.1.2 switch=n enabled=y phases=2 Linecode=1P_OH_AL_2/0_Rucina_0_416_0_2_2_2_2

New Line.l(r:p3udm2976-p3udt863lv) Units=km Length=0.0181093 bus1=p3udt863lv.1.2 bus2=p3udm2976.1.2 switch=n enabled=y phases=2 Linecode=1P_OH_AL_2/0_Rucina_0_416_0_2_2_2_2

New Line.l(r:p3udm2979-p3ulv50148) Units=km Length=0.0114032 bus1=p3udm2979.1.2 bus2=p3ulv50148.1.2 switch=n enabled=y phases=2 Linecode=1P_OH_AL_2/0_Rucina_0_416_0_2_2_2_2

New Line.l(r:p3udm2979-p3ulv70887) Units=km Length=0.0241831 bus1=p3udm2979.1.2 bus2=p3ulv70887.1.2 switch=n enabled=y phases=2 Linecode=1P_OH_AL_2/0_Rucina_0_416_0_2_2_2_2

New Line.l(r:p3udm2978-p3ulv32389) Units=km Length=0.0207912 bus1=p3udm2978.1.2 bus2=p3ulv32389.1.2 switch=n enabled=y phases=2 Linecode=1P_OH_AL_2/0_Rucina_0_416_0_2_2_2_2

New Line.l(r:p3udm2978-p3udm2979) Units=km Length=0.0191924 bus1=p3udm2979.1.2 bus2=p3udm2978.1.2 switch=n enabled=y phases=2 Linecode=1P_OH_AL_2/0_Rucina_0_416_0_2_2_2_2

New Line.l(r:p3udm2979-p3udt863lv) Units=km Length=0.0192012 bus1=p3udt863lv.1.2 bus2=p3udm2979.1.2 switch=n enabled=y phases=2 Linecode=1P_OH_AL_2/0_Rucina_0_416_0_2_0_2_2_2

New Line.l(r:p3udm2984-p3ulv42402) Units=km Length=0.029939500000000004 bus1=p3udm2984.1.2 bus2=p3ulv42402.1.2 switch=n enabled=y phases=2 Linecode=1P_OH_AL_4/0_Zuzara_0_416_0_2_2_2_2

New Line.l(r:p3udm2981-p3ulv1023) Units=km Length=0.0158054 bus1=p3udm2981.1.2 bus2=p3ulv1023.1.2 switch=n enabled=y phases=2 Linecode=1P_OH_AL_2/0_Rucina_0_416_0_2_2_2_2

New Line.l(r:p3udm2981-p3udm2984) Units=km Length=0.0332016 bus1=p3udm2984.1.2 bus2=p3udm2981.1.2 switch=n enabled=y phases=2 Linecode=1P_OH_AL_4/0_Zuzara_0_416_0_2_2_2_2

New Line.l(r:p3udm2984-p3udt864lv) Units=km Length=0.0166008 bus1=p3udt864lv.1.2 bus2=p3udm2984.1.2 switch=n enabled=y phases=2 Linecode=1P_OH_AL_2/0_Rucina_0_416_0_2_2_2_2

New Line.l(r:p3udm2985-p3ulv71620) Units=km Length=0.022854 bus1=p3udm2985.1.2 bus2=p3ulv71620.1.2 switch=n enabled=y phases=2 Linecode=1P_OH_AL_2/0_Rucina_0_416_0_2_2_2_2

New Line.l(r:p3udm2982-p3ulv5784) Units=km Length=0.0529291 bus1=p3udm2982.1.2 bus2=p3ulv5784.1.2 switch=n enabled=y phases=2 Linecode=1P_OH_AL_4/0_Zuzara_0_416_0_2_2_2_2

New Line.l(r:p3udm2982-p3ulv8197) Units=km Length=0.021041 bus1=p3udm2982.1.2 bus2=p3ulv8197.1.2 switch=n enabled=y phases=2 Linecode=1P_OH_AL_2/0_Rucina_0_416_0_2_2_2_2

New Line.l(r:p3udm2982-p3udm2985) Units=km Length=0.018828800000000003 bus1=p3udm2985.1.2 bus2=p3udm2982.1.2 switch=n enabled=y phases=2 Linecode=1P_OH_AL_2/0_Rucina_0_416_0_2_2_2_2

New Line.l(r:p3udm2985-p3udt864lv) Units=km Length=0.0166061 bus1=p3udt864lv.1.2 bus2=p3udm2985.1.2 switch=n enabled=y phases=2 Linecode=1P_OH_AL_2/0_Rucina_0_416_0_2_2_2_2

New Line.l(r:p3udm2986-p3ulv1024) Units=km Length=0.027282600000000004 bus1=p3udm2986.1.2 bus2=p3ulv1024.1.2 switch=n enabled=y phases=2 Linecode=1P_OH_AL_4/0_Zuzara_0_416_0_2_2_2_2

New Line.l(r:p3udm2986-p3ulv12830) Units=km Length=0.0944628 bus1=p3udm2986.1.2 bus2=p3ulv12830.1.2 switch=n enabled=y phases=2 Linecode=1P_OH_AL_4/0_Zuzara_0_416_0_2_2_2_2

New Line.l(r:p3udm2986-p3udt865lv) Units=km Length=0.0195176 bus1=p3udt865lv.1.2 bus2=p3udm2986.1.2 switch=n enabled=y phases=2 Linecode=1P_OH_AL_2/0_Rucina_0_416_0_2_2_2_2

New Line.l(r:p3udm2988-p3ulv69305) Units=km Length=0.05661 bus1=p3udm2988.1.2 bus2=p3ulv69305.1.2 switch=n enabled=y phases=2 Linecode=1P_OH_AL_4/0_Zuzara_0_416_0_2_2_2_2

New Line.l(r:p3udm2988-p3udt865lv) Units=km Length=0.0195087 bus1=p3udt865lv.1.2 bus2=p3udm2988.1.2 switch=n enabled=y phases=2 Linecode=1P_OH_AL_2/0_Rucina_0_416_0_2_2_2_2

New Line.l(r:p3udt870lv-p3ulv31558) Units=km Length=0.118858 bus1=p3udt870lv.1.2 bus2=p3ulv31558.1.2 switch=n enabled=y phases=2 Linecode=1P_OH_AL_4/0_Zuzara_0_416_0_2_2_2_2

New Line.l(r:p3udt870lv-p3ulv64647) Units=km Length=0.0321699 bus1=p3udt870lv.1.2 bus2=p3ulv64647.1.2 switch=n enabled=y phases=2 Linecode=1P_OH_AL_4/0_Zuzara_0_416_0_2_2_2_2

New Line.l(r:p3udm2997-p3ulv1029) Units=km Length=0.0321055 bus1=p3udm2997.1.2 bus2=p3ulv1029.1.2 switch=n enabled=y phases=2 Linecode=1P_OH_AL_4/0_Zuzara_0_416_0_2_2_2_2

New Line.l(r:p3udm2997-p3udt870lv) Units=km Length=0.0372592 bus1=p3udt870lv.1.2 bus2=p3udm2997.1.2 switch=n enabled=y phases=2 Linecode=1P_OH_AL_4/0_Zuzara_0_416_0_2_2_2_2

New Line.l(r:p3udt914lv-p3ulv10538) Units=km Length=0.0919377 bus1=p3udt914lv.1.2 bus2=p3ulv10538.1.2 switch=n enabled=y phases=2 Linecode=1P_OH_AL_4/0_Zuzara_0_416_0_2_2_2_2

New Line.l(r:p3udm3113-p3ulv1074) Units=km Length=0.0769689 bus1=p3udm3113.1.2 bus2=p3ulv1074.1.2 switch=n enabled=y phases=2 Linecode=1P_OH_AL_4/0_Zuzara_0_416_0_2_2_2_2

New Line.l(r:p3udm3113-p3ulv55570) Units=km Length=0.110739 bus1=p3udm3113.1.2 bus2=p3ulv55570.1.2 switch=n enabled=y phases=2 Linecode=1P_OH_AL_4/0_Zuzara_0_416_0_2_2_2_2

New Line.l(r:p3udm3113-p3udt914lv) Units=km Length=0.019764 bus1=p3udt914lv.1.2 bus2=p3udm3113.1.2 switch=n enabled=y phases=2 Linecode=1P_OH_AL_2/0_Rucina_0_416_0_2_2_2_2

New Line.l(r:p3udm3114-p3ulv8248) Units=km Length=0.055584400000000006 bus1=p3udm3114.1.2 bus2=p3ulv8248.1.2 switch=n enabled=y phases=2 Linecode=1P_OH_AL_4/0_Zuzara_0_416_0_2_2_2_2

New Line.l(r:p3udm3114-p3ulv66252) Units=km Length=0.113756 bus1=p3udm3114.1.2 bus2=p3ulv66252.1.2 switch=n enabled=y phases=2 Linecode=1P_OH_AL_4/0_Zuzara_0_416_0_2_2_2_2

New Line.l(r:p3udm3114-p3udt914lv) Units=km Length=0.0197572 bus1=p3udt914lv.1.2 bus2=p3udm3114.1.2 switch=n enabled=y phases=2 Linecode=1P_OH_AL_2/0_Rucina_0_416_0_2_2_2_2

New Line.l(r:p3udm3118-p3ulv1075) Units=km Length=0.0185871 bus1=p3udm3118.1.2 bus2=p3ulv1075.1.2 switch=n enabled=y phases=2 Linecode=1P_UG_AL_1/0_Brenau_0_416_0_2_2_2_2

New Line.l(r:p3udm3118-p3udt915lv) Units=km Length=0.009777980000000002 bus1=p3udt915lv.1.2 bus2=p3udm3118.1.2 switch=n enabled=y phases=2 Linecode=1P_UG_AL_1/0_Brenau_0_416_0_2_2_2_2

New Line.l(r:p3udm3119-p3ulv31604) Units=km Length=0.0151775 bus1=p3udm3119.1.2 bus2=p3ulv31604.1.2 switch=n enabled=y phases=2 Linecode=1P_UG_AL_1/0_Brenau_0_416_0_2_2_2_2

New Line.l(r:p3udm3119-p3ulv63229) Units=km Length=0.0122156 bus1=p3udm3119.1.2 bus2=p3ulv63229.1.2 switch=n enabled=y phases=2 Linecode=1P_UG_AL_1/0_Brenau_0_416_0_2_2_2_2

New Line.l(r:p3udm3119-p3udt915lv) Units=km Length=0.009777980000000002 bus1=p3udt915lv.1.2 bus2=p3udm3119.1.2 switch=n enabled=y phases=2 Linecode=1P_UG_AL_4/0_Sweetbriar_0_416_0_2_2_2_2

New Line.l(r:p3udm3126-p3ulv1078) Units=km Length=0.0199095 bus1=p3udm3126.1.2 bus2=p3ulv1078.1.2 switch=n enabled=y phases=2 Linecode=1P_UG_AL_1/0_Brenau_0_416_0_2_2_2_2

New Line.l(r:p3udm3126-p3udt918lv) Units=km Length=0.00774868 bus1=p3udt918lv.1.2 bus2=p3udm3126.1.2 switch=n enabled=y phases=2 Linecode=1P_UG_AL_1/0_Brenau_0_416_0_2_2_2_2

New Line.l(r:p3udm3128-p3ulv79343) Units=km Length=0.015311200000000002 bus1=p3udm3128.1.2 bus2=p3ulv79343.1.2 switch=n enabled=y phases=2 Linecode=1P_UG_AL_1/0_Brenau_0_416_0_2_2_2_2

New Line.l(r:p3udm3127-p3ulv23010) Units=km Length=0.0206053 bus1=p3udm3127.1.2 bus2=p3ulv23010.1.2 switch=n enabled=y phases=2 Linecode=1P_UG_AL_1/0_Brenau_0_416_0_2_2_2_2

New Line.l(r:p3udm3127-p3udm3128) Units=km Length=0.00609135 bus1=p3udm3128.1.2 bus2=p3udm3127.1.2 switch=n enabled=y phases=2 Linecode=1P_UG_AL_1/0_Brenau_0_416_0_2_2_2_2

New Line.l(r:p3udm3128-p3udt918lv) Units=km Length=0.00609631 bus1=p3udt918lv.1.2 bus2=p3udm3128.1.2 switch=n enabled=y phases=2 Linecode=1P_UG_AL_4/0_Sweetbriar_0_416_0_2_2_2_2

New Line.l(r:p3udt919lv-p3ulv56351) Units=km Length=0.0158134 bus1=p3udt919lv.1.2 bus2=p3ulv56351.1.2 switch=n enabled=y phases=2 Linecode=1P_UG_AL_1/0_Brenau_0_416_0_2_2_2_2

New Line.l(r:p3udm3129-p3ulv1079) Units=km Length=0.0156406 bus1=p3udm3129.1.2 bus2=p3ulv1079.1.2 switch=n enabled=y phases=2 Linecode=1P_UG_AL_1/0_Brenau_0_416_0_2_2_2_2

New Line.l(r:p3udm3132-p3ulv51705) Units=km Length=0.0172488 bus1=p3udm3132.1.2 bus2=p3ulv51705.1.2 switch=n enabled=y phases=2 Linecode=1P_UG_AL_1/0_Brenau_0_416_0_2_2_2_2

New Line.l(r:p3udm3129-p3udm3132) Units=km Length=0.00984488 bus1=p3udm3129.1.2 bus2=p3udm3132.1.2 switch=n enabled=y phases=2 Linecode=1P_UG_AL_1/0_Brenau_0_416_0_2_2_2_2

New Line.l(r:p3udm3129-p3udt919lv) Units=km Length=0.009834890000000002 bus1=p3udt919lv.1.2 bus2=p3udm3129.1.2 switch=n enabled=y phases=2 Linecode=1P_UG_AL_4/0_Sweetbriar_0_416_0_2_2_2_2

New Line.l(r:p3udm3130-p3ulv41683) Units=km Length=0.0175088 bus1=p3udm3130.1.2 bus2=p3ulv41683.1.2 switch=n enabled=y phases=2 Linecode=1P_UG_AL_1/0_Brenau_0_416_0_2_2_2_2

New Line.l(r:p3udm3130-p3ulv49444) Units=km Length=0.0155097 bus1=p3udm3130.1.2 bus2=p3ulv49444.1.2 switch=n enabled=y phases=2 Linecode=1P_UG_AL_1/0_Brenau_0_416_0_2_2_2_2

New Line.l(r:p3udm3130-p3udt919lv) Units=km Length=0.00984488 bus1=p3udt919lv.1.2 bus2=p3udm3130.1.2 switch=n enabled=y phases=2 Linecode=1P_UG_AL_4/0_Sweetbriar_0_416_0_2_2_2_2

New Line.l(r:p3udt920lv-p3ulv74724) Units=km Length=0.00939006 bus1=p3udt920lv.1.2 bus2=p3ulv74724.1.2 switch=n enabled=y phases=2 Linecode=1P_UG_AL_1/0_Brenau_0_416_0_2_2_2_2

New Line.l(r:p3udm3134-p3ulv1080) Units=km Length=0.0221415 bus1=p3udm3134.1.2 bus2=p3ulv1080.1.2 switch=n enabled=y phases=2 Linecode=1P_UG_AL_1/0_Brenau_0_416_0_2_2_2_2

New Line.l(r:p3udm3135-p3ulv15244) Units=km Length=0.00807676 bus1=p3udm3135.1.2 bus2=p3ulv15244.1.2 switch=n enabled=y phases=2 Linecode=1P_UG_AL_1/0_Brenau_0_416_0_2_2_2_2

New Line.l(r:p3udm3134-p3udm3135) Units=km Length=0.0194762 bus1=p3udm3134.1.2 bus2=p3udm3135.1.2 switch=n enabled=y phases=2 Linecode=1P_UG_AL_1/0_Brenau_0_416_0_2_2_2_2

New Line.l(r:p3udm3134-p3udt920lv) Units=km Length=0.009736170000000002 bus1=p3udt920lv.1.2 bus2=p3udm3134.1.2 switch=n enabled=y phases=2 Linecode=1P_UG_AL_4/0_Sweetbriar_0_416_0_2_2_2_2

New Line.l(r:p3udm3136-p3ulv23779) Units=km Length=0.02036 bus1=p3udm3136.1.2 bus2=p3ulv23779.1.2 switch=n enabled=y phases=2 Linecode=1P_UG_AL_1/0_Brenau_0_416_0_2_2_2_2

New Line.l(r:p3udm3136-p3ulv50205) Units=km Length=0.00933441 bus1=p3udm3136.1.2 bus2=p3ulv50205.1.2 switch=n enabled=y phases=2 Linecode=1P_UG_AL_1/0_Brenau_0_416_0_2_2_2_2

New Line.l(r:p3udm3136-p3udt920lv) Units=km Length=0.0194811 bus1=p3udt920lv.1.2 bus2=p3udm3136.1.2 switch=n enabled=y phases=2 Linecode=1P_UG_AL_4/0_Sweetbriar_0_416_0_2_2_2_2

New Line.l(r:p3udm3140-p3ulv1082) Units=km Length=0.016792400000000002 bus1=p3udm3140.1.2 bus2=p3ulv1082.1.2 switch=n enabled=y phases=2 Linecode=1P_UG_AL_1/0_Brenau_0_416_0_2_2_2_2

New Line.l(r:p3udm3140-p3ulv15243) Units=km Length=0.0108936 bus1=p3udm3140.1.2 bus2=p3ulv15243.1.2 switch=n enabled=y phases=2 Linecode=1P_UG_AL_1/0_Brenau_0_416_0_2_2_2_2

New Line.l(r:p3udm3140-p3udt922lv) Units=km Length=0.0197405 bus1=p3udt922lv.1.2 bus2=p3udm3140.1.2 switch=n enabled=y phases=2 Linecode=1P_UG_AL_4/0_Sweetbriar_0_416_0_2_2_2_2

New Line.l(r:p3udm3142-p3ulv53285) Units=km Length=0.00797813 bus1=p3udm3142.1.2 bus2=p3ulv53285.1.2 switch=n enabled=y phases=2 Linecode=1P_UG_AL_1/0_Brenau_0_416_0_2_2_2_2

New Line.l(r:p3udm3142-p3udt922lv) Units=km Length=0.023386700000000003 bus1=p3udt922lv.1.2 bus2=p3udm3142.1.2 switch=n enabled=y phases=2 Linecode=1P_UG_AL_1/0_Brenau_0_416_0_2_2_2_2

New Line.l(r:p3udt923lv-p3ulv11375) Units=km Length=0.01381 bus1=p3udt923lv.1.2 bus2=p3ulv11375.1.2 switch=n enabled=y phases=2 Linecode=1P_UG_AL_1/0_Brenau_0_416_0_2_2_2_2

New Line.l(r:p3udt923lv-p3ulv12887) Units=km Length=0.0210294 bus1=p3udt923lv.1.2 bus2=p3ulv12887.1.2 switch=n enabled=y phases=2 Linecode=1P_UG_AL_1/0_Brenau_0_416_0_2_2_2_2

New Line.l(r:p3udm3143-p3ulv1083) Units=km Length=0.014975900000000002 bus1=p3udm3143.1.2 bus2=p3ulv1083.1.2 switch=n enabled=y phases=2 Linecode=1P_UG_AL_1/0_Brenau_0_416_0_2_2_2_2

New Line.l(r:p3udm3147-p3ulv51707) Units=km Length=0.0119199 bus1=p3udm3147.1.2 bus2=p3ulv51707.1.2 switch=n enabled=y phases=2 Linecode=1P_UG_AL_1/0_Brenau_0_416_0_2_2_2_2

New Line.l(r:p3udm3143-p3udm3147) Units=km Length=0.026075 bus1=p3udm3143.1.2 bus2=p3udm3147.1.2 switch=n enabled=y phases=2 Linecode=1P_UG_AL_1/0_Brenau_0_416_0_2_2_2_2

New Line.l(r:p3udm3143-p3udt923lv) Units=km Length=0.005445 bus1=p3udt923lv.1.2 bus2=p3udm3143.1.2 switch=n enabled=y phases=2 Linecode=1P_UG_AL_4/0_Sweetbriar_0_416_0_2_2_2_2

New Line.l(r:p3udm3144-p3ulv7432) Units=km Length=0.0127794 bus1=p3udm3144.1.2 bus2=p3ulv7432.1.2 switch=n enabled=y phases=2 Linecode=1P_UG_AL_1/0_Brenau_0_416_0_2_2_2_2

New Line.l(r:p3udm3144-p3udt923lv) Units=km Length=0.0257227 bus1=p3udt923lv.1.2 bus2=p3udm3144.1.2 switch=n enabled=y phases=2 Linecode=1P_UG_AL_1/0_Brenau_0_416_0_2_2_2_2

New Line.l(r:p3udt924lv-p3ulv65477) Units=km Length=0.020667400000000002 bus1=p3udt924lv.1.2 bus2=p3ulv65477.1.2 switch=n enabled=y phases=2 Linecode=1P_UG_AL_1/0_Brenau_0_416_0_2_2_2_2

New Line.l(r:p3udm3148-p3ulv1084) Units=km Length=0.0207742 bus1=p3udm3148.1.2 bus2=p3ulv1084.1.2 switch=n enabled=y phases=2 Linecode=1P_UG_AL_1/0_Brenau_0_416_0_2_2_2_2

New Line.l(r:p3udm3148-p3udt924lv) Units=km Length=0.038208 bus1=p3udt924lv.1.2 bus2=p3udm3148.1.2 switch=n enabled=y phases=2 Linecode=1P_UG_AL_1/0_Brenau_0_416_0_2_2_2_2

New Line.l(r:p3udm3149-p3ulv2659) Units=km Length=0.0201479 bus1=p3udm3149.1.2 bus2=p3ulv2659.1.2 switch=n enabled=y phases=2 Linecode=1P_UG_AL_1/0_Brenau_0_416_0_2_2_2_2

New Line.l(r:p3udm3151-p3ulv70949) Units=km Length=0.0209295 bus1=p3udm3151.1.2 bus2=p3ulv70949.1.2 switch=n enabled=y phases=2 Linecode=1P_UG_AL_1/0_Brenau_0_416_0_2_2_2_2

New Line.l(r:p3udm3149-p3udm3151) Units=km Length=0.00968062 bus1=p3udm3149.1.2 bus2=p3udm3151.1.2 switch=n enabled=y phases=2 Linecode=1P_UG_AL_1/0_Brenau_0_416_0_2_2_2_2

New Line.l(r:p3udm3149-p3udt924lv) Units=km Length=0.0192392 bus1=p3udt924lv.1.2 bus2=p3udm3149.1.2 switch=n enabled=y phases=2 Linecode=1P_UG_AL_4/0_Sweetbriar_0_416_0_2_2_2_2

New Line.l(r:p3udt925lv-p3ulv1085) Units=km Length=0.0220551 bus1=p3udt925lv.1.2 bus2=p3ulv1085.1.2 switch=n enabled=y phases=2 Linecode=1P_UG_AL_1/0_Brenau_0_416_0_2_2_2_2

New Line.l(r:p3udm3153-p3ulv79344) Units=km Length=0.0186598 bus1=p3udm3153.1.2 bus2=p3ulv79344.1.2 switch=n enabled=y phases=2 Linecode=1P_UG_AL_1/0_Brenau_0_416_0_2_2_2_2

New Line.l(r:p3udm3153-p3udt925lv) Units=km Length=0.00875491 bus1=p3udt925lv.1.2 bus2=p3udm3153.1.2 switch=n enabled=y phases=2 Linecode=1P_UG_AL_1/0_Brenau_0_416_0_2_2_2_2

New Line.l(r:p3udm3156-p3ulv1087) Units=km Length=0.0179817 bus1=p3udm3156.1.2 bus2=p3ulv1087.1.2 switch=n enabled=y phases=2 Linecode=1P_OH_AL_2/0_Rucina_0_416_0_2_2_2_2

New Line.l(r:p3udm3156-p3udt927lv) Units=km Length=0.0197385 bus1=p3udt927lv.1.2 bus2=p3udm3156.1.2 switch=n enabled=y phases=2 Linecode=1P_OH_AL_2/0_Rucina_0_416_0_2_2_2_2

New Line.l(r:p3udm3157-p3ulv18362) Units=km Length=0.019042000000000003 bus1=p3udm3157.1.2 bus2=p3ulv18362.1.2 switch=n enabled=y phases=2 Linecode=1P_OH_AL_2/0_Rucina_0_416_0_2_2_2_2

New Line.l(r:p3udm3157-p3ulv61670) Units=km Length=0.0171086 bus1=p3udm3157.1.2 bus2=p3ulv61670.1.2 switch=n enabled=y phases=2 Linecode=1P_OH_AL_2/0_Rucina_0_416_0_2_2_2_2

New Line.l(r:p3udm3157-p3udt927lv) Units=km Length=0.017560600000000003 bus1=p3udt927lv.1.2 bus2=p3udm3157.1.2 switch=n enabled=y phases=2 Linecode=1P_OH_AL_2/0_Rucina_0_416_0_2_2_2_2

New Line.l(r:p3udt928lv-p3ulv58635) Units=km Length=0.011988900000000002 bus1=p3udt928lv.1.2 bus2=p3ulv58635.1.2 switch=n enabled=y phases=2 Linecode=1P_OH_AL_2/0_Rucina_0_416_0_2_2_2_2

New Line.l(r:p3udm3159-p3ulv1088) Units=km Length=0.0172395 bus1=p3udm3159.1.2 bus2=p3ulv1088.1.2 switch=n enabled=y phases=2 Linecode=1P_OH_AL_2/0_Rucina_0_416_0_2_2_2_2

New Line.l(r:p3udm3159-p3udt928lv) Units=km Length=0.0320341 bus1=p3udt928lv.1.2 bus2=p3udm3159.1.2 switch=n enabled=y phases=2 Linecode=1P_OH_AL_4/0_Zuzara_0_416_0_2_2_2_2

New Line.l(r:p3udm3160-p3ulv16063) Units=km Length=0.00747521 bus1=p3udm3160.1.2 bus2=p3ulv16063.1.2 switch=n enabled=y phases=2 Linecode=1P_OH_AL_2/0_Rucina_0_416_0_2_2_2_2

New Line.l(r:p3udm3160-p3udt928lv) Units=km Length=0.0184912 bus1=p3udt928lv.1.2 bus2=p3udm3160.1.2 switch=n enabled=y phases=2 Linecode=1P_OH_AL_2/0_Rucina_0_416_0_2_2_2_2
