New Line.l(r:p4udt410lv-p4ulv416) Units=km Length=0.0883567 bus1=p4udt410lv.1.2 bus2=p4ulv416.1.2 switch=n enabled=y phases=2 Linecode=1P_OH_AL_4/0_Zuzara_0_416_0_2_2_2_2

New Line.l(r:p4udt410lv-p4ulv4996) Units=km Length=0.0460057 bus1=p4udt410lv.1.2 bus2=p4ulv4996.1.2 switch=n enabled=y phases=2 Linecode=1P_OH_AL_4/0_Zuzara_0_416_0_2_2_2_2

New Line.l(r:p4udt410lv-p4ulv25013) Units=km Length=0.0508126 bus1=p4udt410lv.1.2 bus2=p4ulv25013.1.2 switch=n enabled=y phases=2 Linecode=1P_OH_AL_4/0_Zuzara_0_416_0_2_2_2_2

New Line.l(r:p4udt411lv-p4ulv417) Units=km Length=0.0280711 bus1=p4udt411lv.1.2 bus2=p4ulv417.1.2 switch=n enabled=y phases=2 Linecode=1P_UG_AL_1/0_Brenau_0_416_0_2_2_2_2

New Line.l(r:p4udt411lv-p4ulv24173) Units=km Length=0.0330515 bus1=p4udt411lv.1.2 bus2=p4ulv24173.1.2 switch=n enabled=y phases=2 Linecode=1P_UG_AL_1/0_Brenau_0_416_0_2_2_2_2

New Line.l(r:p4udm1101-p4ulv3785) Units=km Length=0.0178846 bus1=p4udm1101.1.2 bus2=p4ulv3785.1.2 switch=n enabled=y phases=2 Linecode=1P_UG_AL_1/0_Brenau_0_416_0_2_2_2_2

New Line.l(r:p4udm1101-p4udt411lv) Units=km Length=0.0151825 bus1=p4udt411lv.1.2 bus2=p4udm1101.1.2 switch=n enabled=y phases=2 Linecode=1P_UG_AL_1/0_Brenau_0_416_0_2_2_2_2

New Line.l(r:p4udm1103-p4ulv28868) Units=km Length=0.00904173 bus1=p4udm1103.1.2 bus2=p4ulv28868.1.2 switch=n enabled=y phases=2 Linecode=1P_UG_AL_1/0_Brenau_0_416_0_2_2_2_2

New Line.l(r:p4udm1103-p4ulv39379) Units=km Length=0.0261647 bus1=p4udm1103.1.2 bus2=p4ulv39379.1.2 switch=n enabled=y phases=2 Linecode=1P_UG_AL_1/0_Brenau_0_416_0_2_2_2_2

New Line.l(r:p4udm1103-p4udt411lv) Units=km Length=0.0174968 bus1=p4udt411lv.1.2 bus2=p4udm1103.1.2 switch=n enabled=y phases=2 Linecode=1P_UG_AL_4/0_Sweetbriar_0_416_0_2_2_2_2

New Line.l(r:p4udm1106-p4ulv7955) Units=km Length=0.013566000000000002 bus1=p4udm1106.1.2 bus2=p4ulv7955.1.2 switch=n enabled=y phases=2 Linecode=1P_UG_AL_1/0_Brenau_0_416_0_2_2_2_2

New Line.l(r:p4udm1106-p4udt412lv) Units=km Length=0.0417225 bus1=p4udt412lv.1.2 bus2=p4udm1106.1.2 switch=n enabled=y phases=2 Linecode=1P_UG_AL_1/0_Brenau_0_416_0_2_2_2_2

New Line.l(r:p4udm1107-p4ulv34815) Units=km Length=0.0159482 bus1=p4udm1107.1.2 bus2=p4ulv34815.1.2 switch=n enabled=y phases=2 Linecode=1P_UG_AL_2/0_Converse_0_416_0_2_2_2_2

New Line.l(r:p4udm1105-p4ulv418) Units=km Length=0.0232596 bus1=p4udm1105.1.2 bus2=p4ulv418.1.2 switch=n enabled=y phases=2 Linecode=1P_UG_AL_1/0_Brenau_0_416_0_2_2_2_2

New Line.l(r:p4udm1105-p4udm1107) Units=km Length=0.007183790000000001 bus1=p4udm1107.1.2 bus2=p4udm1105.1.2 switch=n enabled=y phases=2 Linecode=1P_UG_AL_1/0_Brenau_0_416_0_2_2_2_2

New Line.l(r:p4udm1107-p4udt412lv) Units=km Length=0.007180880000000001 bus1=p4udt412lv.1.2 bus2=p4udm1107.1.2 switch=n enabled=y phases=2 Linecode=1P_UG_AL_4/0_Sweetbriar_0_416_0_2_2_2_2

New Line.l(r:p4udt413lv-p4ulv419) Units=km Length=0.0231889 bus1=p4udt413lv.1.2 bus2=p4ulv419.1.2 switch=n enabled=y phases=2 Linecode=1P_UG_AL_1/0_Brenau_0_416_0_2_2_2_2

New Line.l(r:p4udt413lv-p4ulv21746) Units=km Length=0.0310011 bus1=p4udt413lv.1.2 bus2=p4ulv21746.1.2 switch=n enabled=y phases=2 Linecode=1P_UG_AL_1/0_Brenau_0_416_0_2_2_2_2

New Line.l(r:p4udm1110-p4ulv29294) Units=km Length=0.027162300000000004 bus1=p4udm1110.1.2 bus2=p4ulv29294.1.2 switch=n enabled=y phases=2 Linecode=1P_UG_AL_1/0_Brenau_0_416_0_2_2_2_2

New Line.l(r:p4udm1111-p4ulv32261) Units=km Length=0.016749700000000003 bus1=p4udm1111.1.2 bus2=p4ulv32261.1.2 switch=n enabled=y phases=2 Linecode=1P_UG_AL_2/0_Converse_0_416_0_2_2_2_2

New Line.l(r:p4udm1110-p4udm1111) Units=km Length=0.00734374 bus1=p4udm1110.1.2 bus2=p4udm1111.1.2 switch=n enabled=y phases=2 Linecode=1P_UG_AL_2/0_Converse_0_416_0_2_2_2_2

New Line.l(r:p4udm1110-p4udt413lv) Units=km Length=0.0146964 bus1=p4udt413lv.1.2 bus2=p4udm1110.1.2 switch=n enabled=y phases=2 Linecode=1P_UG_AL_4/0_Sweetbriar_0_416_0_2_2_2_2

New Line.l(r:p4udt414lv-p4ulv4590) Units=km Length=0.015043600000000002 bus1=p4udt414lv.1.2 bus2=p4ulv4590.1.2 switch=n enabled=y phases=2 Linecode=1P_UG_AL_2/0_Converse_0_416_0_2_2_2_2

New Line.l(r:p4udt414lv-p4ulv17912) Units=km Length=0.0162929 bus1=p4udt414lv.1.2 bus2=p4ulv17912.1.2 switch=n enabled=y phases=2 Linecode=1P_UG_AL_1/0_Brenau_0_416_0_2_2_2_2

New Line.l(r:p4udm1112-p4ulv420) Units=km Length=0.0151146 bus1=p4udm1112.1.2 bus2=p4ulv420.1.2 switch=n enabled=y phases=2 Linecode=1P_UG_AL_1/0_Brenau_0_416_0_2_2_2_2

New Line.l(r:p4udm1112-p4udt414lv) Units=km Length=0.0151177 bus1=p4udt414lv.1.2 bus2=p4udm1112.1.2 switch=n enabled=y phases=2 Linecode=1P_UG_AL_1/0_Brenau_0_416_0_2_2_2_2

New Line.l(r:p4udm1114-p4ulv6277) Units=km Length=0.015496 bus1=p4udm1114.1.2 bus2=p4ulv6277.1.2 switch=n enabled=y phases=2 Linecode=1P_UG_AL_2/0_Converse_0_416_0_2_2_2_2

New Line.l(r:p4udm1114-p4udt414lv) Units=km Length=0.026658 bus1=p4udt414lv.1.2 bus2=p4udm1114.1.2 switch=n enabled=y phases=2 Linecode=1P_UG_AL_2/0_Converse_0_416_0_2_2_2_2

New Line.l(r:p4udt415lv-p4ulv421) Units=km Length=0.024019 bus1=p4udt415lv.1.2 bus2=p4ulv421.1.2 switch=n enabled=y phases=2 Linecode=1P_UG_AL_1/0_Brenau_0_416_0_2_2_2_2

New Line.l(r:p4udt415lv-p4ulv5873) Units=km Length=0.0225255 bus1=p4udt415lv.1.2 bus2=p4ulv5873.1.2 switch=n enabled=y phases=2 Linecode=1P_UG_AL_1/0_Brenau_0_416_0_2_2_2_2

New Line.l(r:p4udt415lv-p4ulv43596) Units=km Length=0.0349387 bus1=p4udt415lv.1.2 bus2=p4ulv43596.1.2 switch=n enabled=y phases=2 Linecode=1P_UG_AL_1/0_Brenau_0_416_0_2_2_2_2

New Line.l(r:p4udt811lv-p4ulv828) Units=km Length=0.012549 bus1=p4udt811lv.1.2 bus2=p4ulv828.1.2 switch=n enabled=y phases=2 Linecode=1P_UG_AL_2/0_Converse_0_416_0_2_2_2_2

New Line.l(r:p4udt811lv-p4ulv2471) Units=km Length=0.0207187 bus1=p4udt811lv.1.2 bus2=p4ulv2471.1.2 switch=n enabled=y phases=2 Linecode=1P_UG_AL_4/0_Sweetbriar_0_416_0_2_2_2_2

New Line.l(r:p4udm2214-p4ulv10503) Units=km Length=0.0208386 bus1=p4udm2214.1.2 bus2=p4ulv10503.1.2 switch=n enabled=y phases=2 Linecode=1P_UG_AL_1/0_Brenau_0_416_0_2_2_2_2

New Line.l(r:p4udm2214-p4udt811lv) Units=km Length=0.00971478 bus1=p4udt811lv.1.2 bus2=p4udm2214.1.2 switch=n enabled=y phases=2 Linecode=1P_UG_AL_1/0_Brenau_0_416_0_2_2_2_2

New Line.l(r:p4udm2215-p4ulv42330) Units=km Length=0.013320700000000001 bus1=p4udm2215.1.2 bus2=p4ulv42330.1.2 switch=n enabled=y phases=2 Linecode=1P_UG_AL_1/0_Brenau_0_416_0_2_2_2_2

New Line.l(r:p4udm2215-p4udt811lv) Units=km Length=0.00972356 bus1=p4udt811lv.1.2 bus2=p4udm2215.1.2 switch=n enabled=y phases=2 Linecode=1P_UG_AL_1/0_Brenau_0_416_0_2_2_2_2

New Line.l(r:p4udm2216-p4ulv829) Units=km Length=0.0180649 bus1=p4udm2216.1.2 bus2=p4ulv829.1.2 switch=n enabled=y phases=2 Linecode=1P_UG_AL_1/0_Brenau_0_416_0_2_2_2_2

New Line.l(r:p4udm2216-p4ulv18742) Units=km Length=0.0123416 bus1=p4udm2216.1.2 bus2=p4ulv18742.1.2 switch=n enabled=y phases=2 Linecode=1P_UG_AL_1/0_Brenau_0_416_0_2_2_2_2

New Line.l(r:p4udm2220-p4ulv39382) Units=km Length=0.0139997 bus1=p4udm2220.1.2 bus2=p4ulv39382.1.2 switch=n enabled=y phases=2 Linecode=1P_UG_AL_1/0_Brenau_0_416_0_2_2_2_2

New Line.l(r:p4udm2216-p4udm2220) Units=km Length=0.0732019 bus1=p4udm2216.1.2 bus2=p4udm2220.1.2 switch=n enabled=y phases=2 Linecode=1P_UG_AL_1/0_Brenau_0_416_0_2_2_2_2

New Line.l(r:p4udm2216-p4udt812lv) Units=km Length=0.0097509 bus1=p4udt812lv.1.2 bus2=p4udm2216.1.2 switch=n enabled=y phases=2 Linecode=1P_UG_AL_4/0_Sweetbriar_0_416_0_2_2_2_2

New Line.l(r:p4udm2219-p4ulv38589) Units=km Length=0.0106307 bus1=p4udm2219.1.2 bus2=p4ulv38589.1.2 switch=n enabled=y phases=2 Linecode=1P_UG_AL_1/0_Brenau_0_416_0_2_2_2_2

New Line.l(r:p4udm2217-p4ulv7519) Units=km Length=0.0195057 bus1=p4udm2217.1.2 bus2=p4ulv7519.1.2 switch=n enabled=y phases=2 Linecode=1P_UG_AL_1/0_Brenau_0_416_0_2_2_2_2

New Line.l(r:p4udm2217-p4udm2219) Units=km Length=0.0178459 bus1=p4udm2219.1.2 bus2=p4udm2217.1.2 switch=n enabled=y phases=2 Linecode=1P_UG_AL_1/0_Brenau_0_416_0_2_2_2_2

New Line.l(r:p4udm2219-p4udt812lv) Units=km Length=0.023083 bus1=p4udt812lv.1.2 bus2=p4udm2219.1.2 switch=n enabled=y phases=2 Linecode=1P_UG_AL_4/0_Sweetbriar_0_416_0_2_2_2_2

New Line.l(r:p4udt813lv-p4ulv41896) Units=km Length=0.0150748 bus1=p4udt813lv.1.2 bus2=p4ulv41896.1.2 switch=n enabled=y phases=2 Linecode=1P_UG_AL_1/0_Brenau_0_416_0_2_2_2_2

New Line.l(r:p4udm2221-p4ulv830) Units=km Length=0.0162642 bus1=p4udm2221.1.2 bus2=p4ulv830.1.2 switch=n enabled=y phases=2 Linecode=1P_UG_AL_1/0_Brenau_0_416_0_2_2_2_2

New Line.l(r:p4udm2221-p4udt813lv) Units=km Length=0.00882907 bus1=p4udt813lv.1.2 bus2=p4udm2221.1.2 switch=n enabled=y phases=2 Linecode=1P_UG_AL_1/0_Brenau_0_416_0_2_2_2_2

New Line.l(r:p4udm2222-p4ulv33960) Units=km Length=0.0306018 bus1=p4udm2222.1.2 bus2=p4ulv33960.1.2 switch=n enabled=y phases=2 Linecode=1P_UG_AL_1/0_Brenau_0_416_0_2_2_2_2

New Line.l(r:p4udm2222-p4udt813lv) Units=km Length=0.00882907 bus1=p4udt813lv.1.2 bus2=p4udm2222.1.2 switch=n enabled=y phases=2 Linecode=1P_UG_AL_1/0_Brenau_0_416_0_2_2_2_2

New Line.l(r:p4udt1218lv-p4ulv9223) Units=km Length=0.0152878 bus1=p4udt1218lv.1.2 bus2=p4ulv9223.1.2 switch=n enabled=y phases=2 Linecode=1P_UG_AL_1/0_Brenau_0_416_0_2_2_2_2

New Line.l(r:p4udm3293-p4ulv1257) Units=km Length=0.0115894 bus1=p4udm3293.1.2 bus2=p4ulv1257.1.2 switch=n enabled=y phases=2 Linecode=1P_UG_AL_1/0_Brenau_0_416_0_2_2_2_2

New Line.l(r:p4udm3293-p4udt1218lv) Units=km Length=0.00953778 bus1=p4udt1218lv.1.2 bus2=p4udm3293.1.2 switch=n enabled=y phases=2 Linecode=1P_UG_AL_1/0_Brenau_0_416_0_2_2_2_2

New Line.l(r:p4udm3294-p4ulv4589) Units=km Length=0.01804 bus1=p4udm3294.1.2 bus2=p4ulv4589.1.2 switch=n enabled=y phases=2 Linecode=1P_UG_AL_1/0_Brenau_0_416_0_2_2_2_2

New Line.l(r:p4udm3294-p4udt1218lv) Units=km Length=0.00954703 bus1=p4udt1218lv.1.2 bus2=p4udm3294.1.2 switch=n enabled=y phases=2 Linecode=1P_UG_AL_1/0_Brenau_0_416_0_2_2_2_2

New Line.l(r:p4udt1219lv-p4ulv1258) Units=km Length=0.0157017 bus1=p4udt1219lv.1.2 bus2=p4ulv1258.1.2 switch=n enabled=y phases=2 Linecode=1P_UG_AL_4/0_Sweetbriar_0_416_0_2_2_2_2

New Line.l(r:p4udt1219lv-p4ulv44029) Units=km Length=0.0114863 bus1=p4udt1219lv.1.2 bus2=p4ulv44029.1.2 switch=n enabled=y phases=2 Linecode=1P_UG_AL_1/0_Brenau_0_416_0_2_2_2_2

New Line.l(r:p4udm3297-p4ulv25884) Units=km Length=0.0178478 bus1=p4udm3297.1.2 bus2=p4ulv25884.1.2 switch=n enabled=y phases=2 Linecode=1P_UG_AL_1/0_Brenau_0_416_0_2_2_2_2

New Line.l(r:p4udm3297-p4udt1219lv) Units=km Length=0.011553200000000001 bus1=p4udt1219lv.1.2 bus2=p4udm3297.1.2 switch=n enabled=y phases=2 Linecode=1P_UG_AL_1/0_Brenau_0_416_0_2_2_2_2

New Line.l(r:p4udm3298-p4ulv40224) Units=km Length=0.0121795 bus1=p4udm3298.1.2 bus2=p4ulv40224.1.2 switch=n enabled=y phases=2 Linecode=1P_UG_AL_1/0_Brenau_0_416_0_2_2_2_2

New Line.l(r:p4udm3298-p4udt1219lv) Units=km Length=0.0225685 bus1=p4udt1219lv.1.2 bus2=p4udm3298.1.2 switch=n enabled=y phases=2 Linecode=1P_UG_AL_1/0_Brenau_0_416_0_2_2_2_2

New Line.l(r:p4udm3300-p4ulv1259) Units=km Length=0.0110399 bus1=p4udm3300.1.2 bus2=p4ulv1259.1.2 switch=n enabled=y phases=2 Linecode=1P_UG_AL_1/0_Brenau_0_416_0_2_2_2_2

New Line.l(r:p4udm3300-p4udt1220lv) Units=km Length=0.0176162 bus1=p4udt1220lv.1.2 bus2=p4udm3300.1.2 switch=n enabled=y phases=2 Linecode=1P_UG_AL_1/0_Brenau_0_416_0_2_2_2_2

New Line.l(r:p4udm3301-p4ulv12233) Units=km Length=0.0206193 bus1=p4udm3301.1.2 bus2=p4ulv12233.1.2 switch=n enabled=y phases=2 Linecode=1P_UG_AL_1/0_Brenau_0_416_0_2_2_2_2

New Line.l(r:p4udm3301-p4ulv39810) Units=km Length=0.011287000000000002 bus1=p4udm3301.1.2 bus2=p4ulv39810.1.2 switch=n enabled=y phases=2 Linecode=1P_UG_AL_1/0_Brenau_0_416_0_2_2_2_2

New Line.l(r:p4udm3301-p4udt1220lv) Units=km Length=0.00898453 bus1=p4udt1220lv.1.2 bus2=p4udm3301.1.2 switch=n enabled=y phases=2 Linecode=1P_UG_AL_4/0_Sweetbriar_0_416_0_2_2_2_2

New Line.l(r:p4udm4411-p4ulv1692) Units=km Length=0.0142149 bus1=p4udm4411.1.2 bus2=p4ulv1692.1.2 switch=n enabled=y phases=2 Linecode=1P_UG_AL_2/0_Converse_0_416_0_2_2_2_2

New Line.l(r:p4udm4411-p4ulv43588) Units=km Length=0.0135681 bus1=p4udm4411.1.2 bus2=p4ulv43588.1.2 switch=n enabled=y phases=2 Linecode=1P_UG_AL_1/0_Brenau_0_416_0_2_2_2_2

New Line.l(r:p4udm4411-p4udt1626lv) Units=km Length=0.0062859 bus1=p4udt1626lv.1.2 bus2=p4udm4411.1.2 switch=n enabled=y phases=2 Linecode=1P_UG_AL_4/0_Sweetbriar_0_416_0_2_2_2_2

New Line.l(r:p4udm4413-p4ulv44032) Units=km Length=0.0158699 bus1=p4udm4413.1.2 bus2=p4ulv44032.1.2 switch=n enabled=y phases=2 Linecode=1P_UG_AL_1/0_Brenau_0_416_0_2_2_2_2

New Line.l(r:p4udm4413-p4udt1626lv) Units=km Length=0.030982400000000004 bus1=p4udt1626lv.1.2 bus2=p4udm4413.1.2 switch=n enabled=y phases=2 Linecode=1P_UG_AL_1/0_Brenau_0_416_0_2_2_2_2

New Line.l(r:p4udt1631lv-p4ulv1697) Units=km Length=0.0143047 bus1=p4udt1631lv.1.2 bus2=p4ulv1697.1.2 switch=n enabled=y phases=2 Linecode=1P_UG_AL_2/0_Converse_0_416_0_2_2_2_2

New Line.l(r:p4udm4426-p4ulv1698) Units=km Length=0.0159962 bus1=p4udm4426.1.2 bus2=p4ulv1698.1.2 switch=n enabled=y phases=2 Linecode=1P_UG_AL_1/0_Brenau_0_416_0_2_2_2_2

New Line.l(r:p4udm4426-p4udt1632lv) Units=km Length=0.0438115 bus1=p4udt1632lv.1.2 bus2=p4udm4426.1.2 switch=n enabled=y phases=2 Linecode=1P_UG_AL_1/0_Brenau_0_416_0_2_2_2_2

New Line.l(r:p4udm4428-p4ulv26293) Units=km Length=0.0161761 bus1=p4udm4428.1.2 bus2=p4ulv26293.1.2 switch=n enabled=y phases=2 Linecode=1P_UG_AL_1/0_Brenau_0_416_0_2_2_2_2

New Line.l(r:p4udm4427-p4ulv9657) Units=km Length=0.0184208 bus1=p4udm4427.1.2 bus2=p4ulv9657.1.2 switch=n enabled=y phases=2 Linecode=1P_UG_AL_1/0_Brenau_0_416_0_2_2_2_2

New Line.l(r:p4udm4427-p4udm4428) Units=km Length=0.00694421 bus1=p4udm4428.1.2 bus2=p4udm4427.1.2 switch=n enabled=y phases=2 Linecode=1P_UG_AL_1/0_Brenau_0_416_0_2_2_2_2

New Line.l(r:p4udm4428-p4udt1632lv) Units=km Length=0.00694258 bus1=p4udt1632lv.1.2 bus2=p4udm4428.1.2 switch=n enabled=y phases=2 Linecode=1P_UG_AL_4/0_Sweetbriar_0_416_0_2_2_2_2

New Line.l(r:p4udm5378-p4ulv2089) Units=km Length=0.0112827 bus1=p4udm5378.1.2 bus2=p4ulv2089.1.2 switch=n enabled=y phases=2 Linecode=1P_UG_AL_1/0_Brenau_0_416_0_2_2_2_2

New Line.l(r:p4udm5378-p4ulv15293) Units=km Length=0.0190847 bus1=p4udm5378.1.2 bus2=p4ulv15293.1.2 switch=n enabled=y phases=2 Linecode=1P_UG_AL_1/0_Brenau_0_416_0_2_2_2_2

New Line.l(r:p4udm5378-p4udt1997lv) Units=km Length=0.00871432 bus1=p4udt1997lv.1.2 bus2=p4udm5378.1.2 switch=n enabled=y phases=2 Linecode=1P_UG_AL_4/0_Sweetbriar_0_416_0_2_2_2_2

New Line.l(r:p4udm5381-p4ulv24175) Units=km Length=0.0116287 bus1=p4udm5381.1.2 bus2=p4ulv24175.1.2 switch=n enabled=y phases=2 Linecode=1P_UG_AL_1/0_Brenau_0_416_0_2_2_2_2

New Line.l(r:p4udm5379-p4ulv11787) Units=km Length=0.0217533 bus1=p4udm5379.1.2 bus2=p4ulv11787.1.2 switch=n enabled=y phases=2 Linecode=1P_UG_AL_1/0_Brenau_0_416_0_2_2_2_2

New Line.l(r:p4udm5379-p4udm5381) Units=km Length=0.0089646 bus1=p4udm5381.1.2 bus2=p4udm5379.1.2 switch=n enabled=y phases=2 Linecode=1P_UG_AL_1/0_Brenau_0_416_0_2_2_2_2

New Line.l(r:p4udm5381-p4udt1997lv) Units=km Length=0.00897442 bus1=p4udt1997lv.1.2 bus2=p4udm5381.1.2 switch=n enabled=y phases=2 Linecode=1P_UG_AL_4/0_Sweetbriar_0_416_0_2_2_2_2

New Line.l(r:p4udt1998lv-p4ulv17035) Units=km Length=0.0144465 bus1=p4udt1998lv.1.2 bus2=p4ulv17035.1.2 switch=n enabled=y phases=2 Linecode=1P_OH_AL_2/0_Rucina_0_416_0_2_2_2_2

New Line.l(r:p4udt1998lv-p4ulv33087) Units=km Length=0.0222437 bus1=p4udt1998lv.1.2 bus2=p4ulv33087.1.2 switch=n enabled=y phases=2 Linecode=1P_OH_AL_2/0_Rucina_0_416_0_2_2_2_2

New Line.l(r:p4udm5382-p4ulv2090) Units=km Length=0.0114355 bus1=p4udm5382.1.2 bus2=p4ulv2090.1.2 switch=n enabled=y phases=2 Linecode=1P_OH_AL_2/0_Rucina_0_416_0_2_2_2_2

New Line.l(r:p4udm5382-p4ulv32260) Units=km Length=0.0215969 bus1=p4udm5382.1.2 bus2=p4ulv32260.1.2 switch=n enabled=y phases=2 Linecode=1P_OH_AL_2/0_Rucina_0_416_0_2_2_2_2

New Line.l(r:p4udm5382-p4udt1998lv) Units=km Length=0.0187173 bus1=p4udt1998lv.1.2 bus2=p4udm5382.1.2 switch=n enabled=y phases=2 Linecode=1P_OH_AL_2/0_Rucina_0_416_0_2_2_2_2

New Line.l(r:p4udm5383-p4ulv13109) Units=km Length=0.0199231 bus1=p4udm5383.1.2 bus2=p4ulv13109.1.2 switch=n enabled=y phases=2 Linecode=1P_OH_AL_2/0_Rucina_0_416_0_2_2_2_2

New Line.l(r:p4udm5383-p4udt1998lv) Units=km Length=0.0187056 bus1=p4udt1998lv.1.2 bus2=p4udm5383.1.2 switch=n enabled=y phases=2 Linecode=1P_OH_AL_2/0_Rucina_0_416_0_2_2_2_2

New Line.l(r:p4udt1999lv-p4ulv2091) Units=km Length=0.0203689 bus1=p4udt1999lv.1.2 bus2=p4ulv2091.1.2 switch=n enabled=y phases=2 Linecode=1P_UG_AL_1/0_Brenau_0_416_0_2_2_2_2

New Line.l(r:p4udm5388-p4ulv31847) Units=km Length=0.012522200000000002 bus1=p4udm5388.1.2 bus2=p4ulv31847.1.2 switch=n enabled=y phases=2 Linecode=1P_UG_AL_1/0_Brenau_0_416_0_2_2_2_2

New Line.l(r:p4udm5388-p4udt1999lv) Units=km Length=0.00802325 bus1=p4udt1999lv.1.2 bus2=p4udm5388.1.2 switch=n enabled=y phases=2 Linecode=1P_UG_AL_1/0_Brenau_0_416_0_2_2_2_2

New Line.l(r:p4udm5389-p4ulv36879) Units=km Length=0.0136831 bus1=p4udm5389.1.2 bus2=p4ulv36879.1.2 switch=n enabled=y phases=2 Linecode=1P_UG_AL_1/0_Brenau_0_416_0_2_2_2_2

New Line.l(r:p4udm5389-p4udt1999lv) Units=km Length=0.00916035 bus1=p4udt1999lv.1.2 bus2=p4udm5389.1.2 switch=n enabled=y phases=2 Linecode=1P_UG_AL_1/0_Brenau_0_416_0_2_2_2_2

New Line.l(r:p4udt2000lv-p4ulv20015) Units=km Length=0.0127525 bus1=p4udt2000lv.1.2 bus2=p4ulv20015.1.2 switch=n enabled=y phases=2 Linecode=1P_UG_AL_1/0_Brenau_0_416_0_2_2_2_2

New Line.l(r:p4udm5390-p4ulv2092) Units=km Length=0.0420601 bus1=p4udm5390.1.2 bus2=p4ulv2092.1.2 switch=n enabled=y phases=2 Linecode=1P_UG_AL_1/0_Brenau_0_416_0_2_2_2_2

New Line.l(r:p4udm5390-p4ulv39811) Units=km Length=0.0203497 bus1=p4udm5390.1.2 bus2=p4ulv39811.1.2 switch=n enabled=y phases=2 Linecode=1P_UG_AL_1/0_Brenau_0_416_0_2_2_2_2

New Line.l(r:p4udm5391-p4ulv8402) Units=km Length=0.012345500000000002 bus1=p4udm5391.1.2 bus2=p4ulv8402.1.2 switch=n enabled=y phases=2 Linecode=1P_UG_AL_1/0_Brenau_0_416_0_2_2_2_2

New Line.l(r:p4udm5390-p4udm5391) Units=km Length=0.0088188 bus1=p4udm5390.1.2 bus2=p4udm5391.1.2 switch=n enabled=y phases=2 Linecode=1P_UG_AL_1/0_Brenau_0_416_0_2_2_2_2

New Line.l(r:p4udm5390-p4udt2000lv) Units=km Length=0.00881504 bus1=p4udt2000lv.1.2 bus2=p4udm5390.1.2 switch=n enabled=y phases=2 Linecode=1P_UG_AL_4/0_Sweetbriar_0_416_0_2_2_2_2

New Line.l(r:p4udm5392-p4ulv10504) Units=km Length=0.0285872 bus1=p4udm5392.1.2 bus2=p4ulv10504.1.2 switch=n enabled=y phases=2 Linecode=1P_UG_AL_1/0_Brenau_0_416_0_2_2_2_2

New Line.l(r:p4udm5392-p4udt2000lv) Units=km Length=0.0272313 bus1=p4udt2000lv.1.2 bus2=p4udm5392.1.2 switch=n enabled=y phases=2 Linecode=1P_UG_AL_1/0_Brenau_0_416_0_2_2_2_2

New Line.l(r:p4udm5395-p4ulv2093) Units=km Length=0.014405700000000002 bus1=p4udm5395.1.2 bus2=p4ulv2093.1.2 switch=n enabled=y phases=2 Linecode=1P_UG_AL_2/0_Converse_0_416_0_2_2_2_2

New Line.l(r:p4udm5395-p4ulv33961) Units=km Length=0.0163152 bus1=p4udm5395.1.2 bus2=p4ulv33961.1.2 switch=n enabled=y phases=2 Linecode=1P_UG_AL_1/0_Brenau_0_416_0_2_2_2_2

New Line.l(r:p4udm5395-p4udt2001lv) Units=km Length=0.016826500000000005 bus1=p4udt2001lv.1.2 bus2=p4udm5395.1.2 switch=n enabled=y phases=2 Linecode=1P_UG_AL_4/0_Sweetbriar_0_416_0_2_2_2_2

New Line.l(r:p4udm5397-p4ulv35226) Units=km Length=0.008029930000000001 bus1=p4udm5397.1.2 bus2=p4ulv35226.1.2 switch=n enabled=y phases=2 Linecode=1P_UG_AL_1/0_Brenau_0_416_0_2_2_2_2

New Line.l(r:p4udm5397-p4udt2001lv) Units=km Length=0.0695657 bus1=p4udt2001lv.1.2 bus2=p4udm5397.1.2 switch=n enabled=y phases=2 Linecode=1P_UG_AL_1/0_Brenau_0_416_0_2_2_2_2

New Line.l(r:p4udm5398-p4ulv2094) Units=km Length=0.0165345 bus1=p4udm5398.1.2 bus2=p4ulv2094.1.2 switch=n enabled=y phases=2 Linecode=1P_UG_AL_1/0_Brenau_0_416_0_2_2_2_2

New Line.l(r:p4udm5398-p4udt2002lv) Units=km Length=0.00926634 bus1=p4udt2002lv.1.2 bus2=p4udm5398.1.2 switch=n enabled=y phases=2 Linecode=1P_UG_AL_1/0_Brenau_0_416_0_2_2_2_2

New Line.l(r:p4udm5400-p4ulv40647) Units=km Length=0.017644 bus1=p4udm5400.1.2 bus2=p4ulv40647.1.2 switch=n enabled=y phases=2 Linecode=1P_UG_AL_1/0_Brenau_0_416_0_2_2_2_2

New Line.l(r:p4udm5399-p4ulv28469) Units=km Length=0.0168958 bus1=p4udm5399.1.2 bus2=p4ulv28469.1.2 switch=n enabled=y phases=2 Linecode=1P_UG_AL_1/0_Brenau_0_416_0_2_2_2_2

New Line.l(r:p4udm5399-p4udm5400) Units=km Length=0.00779193 bus1=p4udm5400.1.2 bus2=p4udm5399.1.2 switch=n enabled=y phases=2 Linecode=1P_UG_AL_1/0_Brenau_0_416_0_2_2_2_2

New Line.l(r:p4udm5400-p4udt2002lv) Units=km Length=0.00779193 bus1=p4udt2002lv.1.2 bus2=p4udm5400.1.2 switch=n enabled=y phases=2 Linecode=1P_UG_AL_4/0_Sweetbriar_0_416_0_2_2_2_2

New Line.l(r:p4udt2344lv-p4ulv24169) Units=km Length=0.0166178 bus1=p4udt2344lv.1.2 bus2=p4ulv24169.1.2 switch=n enabled=y phases=2 Linecode=1P_UG_AL_1/0_Brenau_0_416_0_2_2_2_2

New Line.l(r:p4udm6261-p4ulv2461) Units=km Length=0.0157898 bus1=p4udm6261.1.2 bus2=p4ulv2461.1.2 switch=n enabled=y phases=2 Linecode=1P_UG_AL_1/0_Brenau_0_416_0_2_2_2_2

New Line.l(r:p4udm6261-p4ulv38167) Units=km Length=0.0148331 bus1=p4udm6261.1.2 bus2=p4ulv38167.1.2 switch=n enabled=y phases=2 Linecode=1P_UG_AL_1/0_Brenau_0_416_0_2_2_2_2

New Line.l(r:p4udm6261-p4udt2344lv) Units=km Length=0.017258 bus1=p4udt2344lv.1.2 bus2=p4udm6261.1.2 switch=n enabled=y phases=2 Linecode=1P_UG_AL_4/0_Sweetbriar_0_416_0_2_2_2_2

New Line.l(r:p4udm6263-p4ulv27609) Units=km Length=0.01329 bus1=p4udm6263.1.2 bus2=p4ulv27609.1.2 switch=n enabled=y phases=2 Linecode=1P_UG_AL_1/0_Brenau_0_416_0_2_2_2_2

New Line.l(r:p4udm6263-p4udt2344lv) Units=km Length=0.014763700000000001 bus1=p4udt2344lv.1.2 bus2=p4udm6263.1.2 switch=n enabled=y phases=2 Linecode=1P_UG_AL_1/0_Brenau_0_416_0_2_2_2_2

New Line.l(r:p4udt2350lv-p4ulv43156) Units=km Length=0.0110123 bus1=p4udt2350lv.1.2 bus2=p4ulv43156.1.2 switch=n enabled=y phases=2 Linecode=1P_UG_AL_1/0_Brenau_0_416_0_2_2_2_2

New Line.l(r:p4udm6278-p4ulv2467) Units=km Length=0.0192105 bus1=p4udm6278.1.2 bus2=p4ulv2467.1.2 switch=n enabled=y phases=2 Linecode=1P_UG_AL_1/0_Brenau_0_416_0_2_2_2_2

New Line.l(r:p4udm6278-p4udt2350lv) Units=km Length=0.0145332 bus1=p4udt2350lv.1.2 bus2=p4udm6278.1.2 switch=n enabled=y phases=2 Linecode=1P_UG_AL_1/0_Brenau_0_416_0_2_2_2_2

New Line.l(r:p4udm6279-p4ulv5871) Units=km Length=0.0189767 bus1=p4udm6279.1.2 bus2=p4ulv5871.1.2 switch=n enabled=y phases=2 Linecode=1P_UG_AL_1/0_Brenau_0_416_0_2_2_2_2

New Line.l(r:p4udm6279-p4udt2350lv) Units=km Length=0.00727151 bus1=p4udt2350lv.1.2 bus2=p4udm6279.1.2 switch=n enabled=y phases=2 Linecode=1P_UG_AL_1/0_Brenau_0_416_0_2_2_2_2

New Line.l(r:p4udt2351lv-p4ulv2468) Units=km Length=0.0295946 bus1=p4udt2351lv.1.2 bus2=p4ulv2468.1.2 switch=n enabled=y phases=2 Linecode=1P_UG_AL_1/0_Brenau_0_416_0_2_2_2_2

New Line.l(r:p4udt2351lv-p4ulv18736) Units=km Length=0.0304354 bus1=p4udt2351lv.1.2 bus2=p4ulv18736.1.2 switch=n enabled=y phases=2 Linecode=1P_UG_AL_1/0_Brenau_0_416_0_2_2_2_2

New Line.l(r:p4udt2351lv-p4ulv30592) Units=km Length=0.029127700000000003 bus1=p4udt2351lv.1.2 bus2=p4ulv30592.1.2 switch=n enabled=y phases=2 Linecode=1P_UG_AL_1/0_Brenau_0_416_0_2_2_2_2

New Line.l(r:p4udt2351lv-p4ulv33509) Units=km Length=0.0329798 bus1=p4udt2351lv.1.2 bus2=p4ulv33509.1.2 switch=n enabled=y phases=2 Linecode=1P_UG_AL_1/0_Brenau_0_416_0_2_2_2_2

New Line.l(r:p4udt2351lv-p4ulv36479) Units=km Length=0.0243386 bus1=p4udt2351lv.1.2 bus2=p4ulv36479.1.2 switch=n enabled=y phases=2 Linecode=1P_UG_AL_1/0_Brenau_0_416_0_2_2_2_2

New Line.l(r:p4udt2352lv-p4ulv2469) Units=km Length=0.018539900000000005 bus1=p4udt2352lv.1.2 bus2=p4ulv2469.1.2 switch=n enabled=y phases=2 Linecode=1P_OH_AL_2/0_Rucina_0_416_0_2_2_2_2

New Line.l(r:p4udt2352lv-p4ulv3786) Units=km Length=0.0145413 bus1=p4udt2352lv.1.2 bus2=p4ulv3786.1.2 switch=n enabled=y phases=2 Linecode=1P_OH_AL_2/0_Rucina_0_416_0_2_2_2_2

New Line.l(r:p4udm6288-p4ulv20901) Units=km Length=0.0141066 bus1=p4udm6288.1.2 bus2=p4ulv20901.1.2 switch=n enabled=y phases=2 Linecode=1P_OH_AL_2/0_Rucina_0_416_0_2_2_2_2

New Line.l(r:p4udm6288-p4ulv21309) Units=km Length=0.0142672 bus1=p4udm6288.1.2 bus2=p4ulv21309.1.2 switch=n enabled=y phases=2 Linecode=1P_OH_AL_2/0_Rucina_0_416_0_2_2_2_2

New Line.l(r:p4udm6288-p4udt2352lv) Units=km Length=0.0193114 bus1=p4udt2352lv.1.2 bus2=p4udm6288.1.2 switch=n enabled=y phases=2 Linecode=1P_OH_AL_2/0_Rucina_0_416_0_2_2_2_2

New Line.l(r:p4udm6290-p4ulv2470) Units=km Length=0.02015 bus1=p4udm6290.1.2 bus2=p4ulv2470.1.2 switch=n enabled=y phases=2 Linecode=1P_UG_AL_1/0_Brenau_0_416_0_2_2_2_2

New Line.l(r:p4udm6290-p4udt2353lv) Units=km Length=0.00854327 bus1=p4udt2353lv.1.2 bus2=p4udm6290.1.2 switch=n enabled=y phases=2 Linecode=1P_UG_AL_1/0_Brenau_0_416_0_2_2_2_2

New Line.l(r:p4udm6292-p4ulv33514) Units=km Length=0.0267615 bus1=p4udm6292.1.2 bus2=p4ulv33514.1.2 switch=n enabled=y phases=2 Linecode=1P_UG_AL_1/0_Brenau_0_416_0_2_2_2_2

New Line.l(r:p4udm6291-p4ulv30595) Units=km Length=0.0283871 bus1=p4udm6291.1.2 bus2=p4ulv30595.1.2 switch=n enabled=y phases=2 Linecode=1P_UG_AL_1/0_Brenau_0_416_0_2_2_2_2

New Line.l(r:p4udm6291-p4udm6292) Units=km Length=0.00566015 bus1=p4udm6292.1.2 bus2=p4udm6291.1.2 switch=n enabled=y phases=2 Linecode=1P_UG_AL_1/0_Brenau_0_416_0_2_2_2_2

New Line.l(r:p4udm6292-p4udt2353lv) Units=km Length=0.00566255 bus1=p4udt2353lv.1.2 bus2=p4udm6292.1.2 switch=n enabled=y phases=2 Linecode=1P_UG_AL_4/0_Sweetbriar_0_416_0_2_2_2_2

New Line.l(r:p4udt2354lv-p4ulv2472) Units=km Length=0.0212117 bus1=p4udt2354lv.1.2 bus2=p4ulv2472.1.2 switch=n enabled=y phases=2 Linecode=1P_UG_AL_1/0_Brenau_0_416_0_2_2_2_2

New Line.l(r:p4udt2354lv-p4ulv22184) Units=km Length=0.0262242 bus1=p4udt2354lv.1.2 bus2=p4ulv22184.1.2 switch=n enabled=y phases=2 Linecode=1P_UG_AL_1/0_Brenau_0_416_0_2_2_2_2

New Line.l(r:p4udt2354lv-p4ulv28036) Units=km Length=0.0244189 bus1=p4udt2354lv.1.2 bus2=p4ulv28036.1.2 switch=n enabled=y phases=2 Linecode=1P_UG_AL_1/0_Brenau_0_416_0_2_2_2_2

New Line.l(r:p4udt2354lv-p4ulv39812) Units=km Length=0.0257894 bus1=p4udt2354lv.1.2 bus2=p4ulv39812.1.2 switch=n enabled=y phases=2 Linecode=1P_UG_AL_1/0_Brenau_0_416_0_2_2_2_2

New Line.l(r:p4udm6294-p4ulv6691) Units=km Length=0.0134435 bus1=p4udm6294.1.2 bus2=p4ulv6691.1.2 switch=n enabled=y phases=2 Linecode=1P_UG_AL_1/0_Brenau_0_416_0_2_2_2_2

New Line.l(r:p4udm6294-p4udt2354lv) Units=km Length=0.0374917 bus1=p4udt2354lv.1.2 bus2=p4udm6294.1.2 switch=n enabled=y phases=2 Linecode=1P_UG_AL_1/0_Brenau_0_416_0_2_2_2_2

New Line.l(r:p4udm6298-p4ulv2473) Units=km Length=0.0275246 bus1=p4udm6298.1.2 bus2=p4ulv2473.1.2 switch=n enabled=y phases=2 Linecode=1P_UG_AL_1/0_Brenau_0_416_0_2_2_2_2

New Line.l(r:p4udm6298-p4ulv23764) Units=km Length=0.00949792 bus1=p4udm6298.1.2 bus2=p4ulv23764.1.2 switch=n enabled=y phases=2 Linecode=1P_UG_AL_1/0_Brenau_0_416_0_2_2_2_2

New Line.l(r:p4udm6298-p4udt2355lv) Units=km Length=0.00919544 bus1=p4udt2355lv.1.2 bus2=p4udm6298.1.2 switch=n enabled=y phases=2 Linecode=1P_UG_AL_4/0_Sweetbriar_0_416_0_2_2_2_2

New Line.l(r:p4udm6300-p4ulv44031) Units=km Length=0.029624100000000004 bus1=p4udm6300.1.2 bus2=p4ulv44031.1.2 switch=n enabled=y phases=2 Linecode=1P_UG_AL_1/0_Brenau_0_416_0_2_2_2_2

New Line.l(r:p4udm6300-p4udt2355lv) Units=km Length=0.0159862 bus1=p4udt2355lv.1.2 bus2=p4udm6300.1.2 switch=n enabled=y phases=2 Linecode=1P_UG_AL_1/0_Brenau_0_416_0_2_2_2_2

New Line.l(r:p4udt2356lv-p4ulv10916) Units=km Length=0.0408182 bus1=p4udt2356lv.1.2 bus2=p4ulv10916.1.2 switch=n enabled=y phases=2 Linecode=1P_OH_AL_4/0_Zuzara_0_416_0_2_2_2_2

New Line.l(r:p4udt2356lv-p4ulv39813) Units=km Length=0.0387931 bus1=p4udt2356lv.1.2 bus2=p4ulv39813.1.2 switch=n enabled=y phases=2 Linecode=1P_OH_AL_4/0_Zuzara_0_416_0_2_2_2_2

New Line.l(r:p4udm6301-p4ulv2474) Units=km Length=0.0411921 bus1=p4udm6301.1.2 bus2=p4ulv2474.1.2 switch=n enabled=y phases=2 Linecode=1P_OH_AL_4/0_Zuzara_0_416_0_2_2_2_2

New Line.l(r:p4udm6301-p4udt2356lv) Units=km Length=0.0192914 bus1=p4udt2356lv.1.2 bus2=p4udm6301.1.2 switch=n enabled=y phases=2 Linecode=1P_OH_AL_2/0_Rucina_0_416_0_2_2_2_2

New Line.l(r:p4udt2357lv-p4ulv2475) Units=km Length=0.013920700000000001 bus1=p4udt2357lv.1.2 bus2=p4ulv2475.1.2 switch=n enabled=y phases=2 Linecode=1P_UG_AL_2/0_Converse_0_416_0_2_2_2_2

New Line.l(r:p4udm7323-p4ulv11358) Units=km Length=0.0143052 bus1=p4udm7323.1.2 bus2=p4ulv11358.1.2 switch=n enabled=y phases=2 Linecode=1P_UG_AL_2/0_Converse_0_416_0_2_2_2_2

New Line.l(r:p4udm7323-p4ulv30997) Units=km Length=0.0154057 bus1=p4udm7323.1.2 bus2=p4ulv30997.1.2 switch=n enabled=y phases=2 Linecode=1P_UG_AL_2/0_Converse_0_416_0_2_2_2_2

New Line.l(r:p4udm7323-p4udt2747lv) Units=km Length=0.00713808 bus1=p4udt2747lv.1.2 bus2=p4udm7323.1.2 switch=n enabled=y phases=2 Linecode=1P_UG_AL_4/0_Sweetbriar_0_416_0_2_2_2_2

New Line.l(r:p4udm7325-p4ulv40645) Units=km Length=0.0149259 bus1=p4udm7325.1.2 bus2=p4ulv40645.1.2 switch=n enabled=y phases=2 Linecode=1P_UG_AL_2/0_Converse_0_416_0_2_2_2_2

New Line.l(r:p4udm7322-p4ulv2923) Units=km Length=0.0143316 bus1=p4udm7322.1.2 bus2=p4ulv2923.1.2 switch=n enabled=y phases=2 Linecode=1P_UG_AL_1/0_Brenau_0_416_0_2_2_2_2

New Line.l(r:p4udm7322-p4udm7325) Units=km Length=0.00713808 bus1=p4udm7325.1.2 bus2=p4udm7322.1.2 switch=n enabled=y phases=2 Linecode=1P_UG_AL_1/0_Brenau_0_416_0_2_2_2_2

New Line.l(r:p4udm7325-p4udt2747lv) Units=km Length=0.007147760000000001 bus1=p4udt2747lv.1.2 bus2=p4udm7325.1.2 switch=n enabled=y phases=2 Linecode=1P_UG_AL_4/0_Sweetbriar_0_416_0_2_2_2_2

New Line.l(r:p4udt2748lv-p4ulv13110) Units=km Length=0.018561700000000004 bus1=p4udt2748lv.1.2 bus2=p4ulv13110.1.2 switch=n enabled=y phases=2 Linecode=1P_UG_AL_1/0_Brenau_0_416_0_2_2_2_2

New Line.l(r:p4udm7326-p4ulv2924) Units=km Length=0.0101029 bus1=p4udm7326.1.2 bus2=p4ulv2924.1.2 switch=n enabled=y phases=2 Linecode=1P_UG_AL_1/0_Brenau_0_416_0_2_2_2_2
