Clear

New Circuit.substation_p4uhs0_69 bus1=p4uhs0_69 pu=1.0 basekV=69.0 R1=1e-05 X1=1e-05 R0=1e-05 X0=1e-05

Redirect Transformers.dss
Redirect p4uhs0_1247--p4udt18706/Transformers.dss
Redirect p4uhs0_1247--p4udt18708/Transformers.dss
Redirect p4uhs0_1247--p4udt7051/Transformers.dss
Redirect p4uhs0_1247--p4udt7046/Transformers.dss
Redirect p4uhs0_1247--p4udt19058/Transformers.dss
Redirect Regulators.dss
Redirect p4uhs0_1247--p4udt18706/Loads.dss
Redirect p4uhs0_1247--p4udt18708/Loads.dss
Redirect p4uhs0_1247--p4udt7051/Loads.dss
Redirect p4uhs0_1247--p4udt7046/Loads.dss
Redirect p4uhs0_1247--p4udt19058/Loads.dss
Redirect LineCodes.dss
Redirect p4uhs0_1247--p4udt18706/LineCodes.dss
Redirect p4uhs0_1247--p4udt18708/LineCodes.dss
Redirect p4uhs0_1247--p4udt7051/LineCodes.dss
Redirect p4uhs0_1247--p4udt7046/LineCodes.dss
Redirect p4uhs0_1247--p4udt19058/LineCodes.dss
Redirect Lines.dss
Redirect p4uhs0_1247--p4udt18706/Lines.dss
Redirect p4uhs0_1247--p4udt18708/Lines.dss
Redirect p4uhs0_1247--p4udt7051/Lines.dss
Redirect p4uhs0_1247--p4udt7046/Lines.dss
Redirect p4uhs0_1247--p4udt19058/Lines.dss
Redirect p4uhs0_1247--p4udt18706/Capacitors.dss
Redirect p4uhs0_1247--p4udt18708/Capacitors.dss
Redirect p4uhs0_1247--p4udt7051/Capacitors.dss
Redirect p4uhs0_1247--p4udt7046/Capacitors.dss
Redirect p4uhs0_1247--p4udt19058/Capacitors.dss

Set Voltagebases=[0.2080002494301389, 0.48, 7.199560000000001, 12.47, 69.0]

Calcvoltagebases

Buscoords Buscoords.dss

Solve