Clear

New Circuit.substation_p5uhs24_69 bus1=p5uhs24_69 pu=1.0 basekV=69.0 R1=1e-05 X1=1e-05 R0=1e-05 X0=1e-05

Redirect p5uhs24_1247--p5udt29597/Transformers.dss
Redirect p5uhs24_1247--p5udt18206/Transformers.dss
Redirect p5uhs24_1247--p5udt16214/Transformers.dss
Redirect Transformers.dss
Redirect Regulators.dss
Redirect p5uhs24_1247--p5udt29597/Loads.dss
Redirect p5uhs24_1247--p5udt18206/Loads.dss
Redirect p5uhs24_1247--p5udt16214/Loads.dss
Redirect p5uhs24_1247--p5udt29597/LineCodes.dss
Redirect p5uhs24_1247--p5udt18206/LineCodes.dss
Redirect p5uhs24_1247--p5udt16214/LineCodes.dss
Redirect LineCodes.dss
Redirect p5uhs24_1247--p5udt29597/Lines.dss
Redirect p5uhs24_1247--p5udt18206/Lines.dss
Redirect p5uhs24_1247--p5udt16214/Lines.dss
Redirect Lines.dss
Redirect p5uhs24_1247--p5udt29597/Capacitors.dss
Redirect p5uhs24_1247--p5udt18206/Capacitors.dss
Redirect p5uhs24_1247--p5udt16214/Capacitors.dss

Set Voltagebases=[0.2080002494301389, 0.48, 7.199560000000001, 12.47, 69.0]

Calcvoltagebases

Buscoords Buscoords.dss

Solve