New Load.load_p1ulv7585 conn=wye bus1=p1ulv7585.1.2 kV=0.2080002494301389 Vminpu=0.8 Vmaxpu=1.2 model=1 kW=1.43001 kvar=0.4700215572468261 Phases=2

New Load.load_p1ulv19565 conn=wye bus1=p1ulv19565.1.2 kV=0.2080002494301389 Vminpu=0.8 Vmaxpu=1.2 model=1 kW=12.5801 kvar=4.130413097916201 Phases=2

New Load.load_p1ulv20824 conn=wye bus1=p1ulv20824.1.2 kV=0.2080002494301389 Vminpu=0.8 Vmaxpu=1.2 model=1 kW=1.38001 kvar=0.45015019350021623 Phases=2

New Load.load_p1ulv20825 conn=wye bus1=p1ulv20825.1.2 kV=0.2080002494301389 Vminpu=0.8 Vmaxpu=1.2 model=1 kW=7.19007 kvar=2.3607093189191137 Phases=2

New Load.load_p1umv26 conn=wye bus1=p1umv26.1.2.3 kV=12.47 Vminpu=0.8 Vmaxpu=1.2 model=1 kW=3798.4000000000005 kvar=1248.4737051113939 Phases=3

New Load.load_p1ulv39843 conn=wye bus1=p1ulv39843.1.2 kV=0.2080002494301389 Vminpu=0.8 Vmaxpu=1.2 model=1 kW=13.920100000000001 kvar=4.570374111835622 Phases=2

