New Line.l(r:p1udt9281lv-p1ulv11782) Units=km Length=0.0111765 bus1=p1udt9281lv.1.2 bus2=p1ulv11782.1.2 switch=n enabled=y phases=2 Linecode=1P_OH_AL_2/0_Rucina_0_416_0_2_2_2_2

New Line.l(r:p1udt18221lv-p1ulv32094) Units=km Length=0.00752354 bus1=p1udt18221lv.1.2 bus2=p1ulv32094.1.2 switch=n enabled=y phases=2 Linecode=1P_OH_AL_2/0_Rucina_0_416_0_2_2_2_2

New Line.l(r:p1udt20221lv-p1ulv39092) Units=km Length=0.00557324 bus1=p1udt20221lv.1.2 bus2=p1ulv39092.1.2 switch=n enabled=y phases=2 Linecode=1P_OH_AL_2/0_Rucina_0_416_0_2_2_2_2

New Line.l(r:p1udt21404lv-p1ulv44146) Units=km Length=0.00710004 bus1=p1udt21404lv.1.2 bus2=p1ulv44146.1.2 switch=n enabled=y phases=2 Linecode=1P_OH_AL_2/0_Rucina_0_416_0_2_2_2_2

New Line.l(r:p1udt23747lv-p1ulv56598) Units=km Length=0.00606601 bus1=p1udt23747lv.1.2 bus2=p1ulv56598.1.2 switch=n enabled=y phases=2 Linecode=1P_OH_AL_2/0_Rucina_0_416_0_2_2_2_2

New Line.l(r:p1udm62422-p1ulv55977) Units=km Length=0.00790848 bus1=p1udm62422.1.2 bus2=p1ulv55977.1.2 switch=n enabled=y phases=2 Linecode=1P_OH_AL_2/0_Rucina_0_416_0_2_2_2_2

New Line.l(r:p1udm62422-p1udt23747lv) Units=km Length=0.0182007 bus1=p1udt23747lv.1.2 bus2=p1udm62422.1.2 switch=n enabled=y phases=2 Linecode=1P_OH_AL_2/0_Rucina_0_416_0_2_2_2_2

New Line.l(r:p1udm62424-p1ulv63384) Units=km Length=0.006837730000000001 bus1=p1udm62424.1.2 bus2=p1ulv63384.1.2 switch=n enabled=y phases=2 Linecode=1P_OH_AL_2/0_Rucina_0_416_0_2_2_2_2

New Line.l(r:p1udm62424-p1udt23747lv) Units=km Length=0.0394571 bus1=p1udt23747lv.1.2 bus2=p1udm62424.1.2 switch=n enabled=y phases=2 Linecode=1P_OH_AL_4/0_Zuzara_0_416_0_2_2_2_2

New Line.l(r:p1udt23968lv-p1ulv57219) Units=km Length=0.0103946 bus1=p1udt23968lv.1.2 bus2=p1ulv57219.1.2 switch=n enabled=y phases=2 Linecode=1P_OH_AL_2/0_Rucina_0_416_0_2_2_2_2

New Line.l(r:p1udt23395-p1udt9285) Units=km Length=0.0969803 bus1=p1udt23395.1.2.3 bus2=p1udt9285.1.2.3 switch=n enabled=y phases=3 Linecode=3P_OH_AL_ACSR_4/0_Penguin_12_47_0_3_3_3_3

New Line.l(r:p1udt17834-p1udt23395) Units=km Length=0.0610171 bus1=p1udt17834.1.2.3 bus2=p1udt23395.1.2.3 switch=n enabled=y phases=3 Linecode=3P_OH_AL_ACSR_4/0_Penguin_12_47_0_3_3_3_3

New Line.l(r:p1udt12458-p1udt17834) Units=km Length=0.100847 bus1=p1udt12458.1.2.3 bus2=p1udt17834.1.2.3 switch=n enabled=y phases=3 Linecode=3P_OH_AL_ACSR_4/0_Penguin_12_47_0_3_3_3_3

New Line.l(r:p1udt12458-p1udt3417) Units=km Length=0.0624397 bus1=p1udt3417.1.2.3 bus2=p1udt12458.1.2.3 switch=n enabled=y phases=3 Linecode=3P_OH_AL_ACSR_4/0_Penguin_12_47_0_3_3_3_3

New Line.l(r:p1udt21098-p1udt3417) Units=km Length=0.0906577 bus1=p1udt21098.1.2.3 bus2=p1udt3417.1.2.3 switch=n enabled=y phases=3 Linecode=3P_OH_AL_ACSR_4/0_Penguin_12_47_0_3_3_3_3

New Line.l(r:p1udt21098-p1udt21948) Units=km Length=0.127997 bus1=p1udt21948.1.2.3 bus2=p1udt21098.1.2.3 switch=n enabled=y phases=3 Linecode=3P_OH_AL_ACSR_4/0_Penguin_12_47_0_3_3_3_3

New Line.l(r:p1udt21948-p1udt24806) Units=km Length=0.0292384 bus1=p1udt24806.1.2.3 bus2=p1udt21948.1.2.3 switch=n enabled=y phases=3 Linecode=3P_OH_AL_ACSR_4/0_Penguin_12_47_0_3_3_3_3

New Line.l(r:p1udt23968-p1udt24806) Units=km Length=0.046987600000000004 bus1=p1udt23968.1.2.3 bus2=p1udt24806.1.2.3 switch=n enabled=y phases=3 Linecode=3P_OH_AL_ACSR_4/0_Penguin_12_47_0_3_3_3_3

New Line.l(r:p1udt1694-p1udt23968) Units=km Length=0.0610145 bus1=p1udt1694.1.2.3 bus2=p1udt23968.1.2.3 switch=n enabled=y phases=3 Linecode=3P_OH_AL_ACSR_4/0_Penguin_12_47_0_3_3_3_3

New Line.l(r:p1udt1694-p1udt23747) Units=km Length=0.04393960000000001 bus1=p1udt23747.1.2.3 bus2=p1udt1694.1.2.3 switch=n enabled=y phases=3 Linecode=3P_OH_AL_ACSR_4/0_Penguin_12_47_0_3_3_3_3

New Line.l(r:p1udt23747-p1udt9283) Units=km Length=0.0773556 bus1=p1udt23747.1.2.3 bus2=p1udt9283.1.2.3 switch=n enabled=y phases=3 Linecode=3P_OH_AL_ACSR_4/0_Penguin_12_47_0_3_3_3_3

New Line.l(r:p1udt17833-p1udt23747) Units=km Length=0.0182007 bus1=p1udt17833.1.2.3 bus2=p1udt23747.1.2.3 switch=n enabled=y phases=3 Linecode=3P_OH_AL_ACSR_4/0_Penguin_12_47_0_3_3_3_3

New Line.l(r:p1udt17833-p1udt23862) Units=km Length=0.0364014 bus1=p1udt23862.1.2.3 bus2=p1udt17833.1.2.3 switch=n enabled=y phases=3 Linecode=3P_OH_AL_ACSR_4/0_Penguin_12_47_0_3_3_3_3

New Line.l(r:p1udt18995-p1udt23862) Units=km Length=0.0790824 bus1=p1udt18995.1.2.3 bus2=p1udt23862.1.2.3 switch=n enabled=y phases=3 Linecode=3P_OH_AL_ACSR_4/0_Penguin_12_47_0_3_3_3_3

New Line.l(r:p1udt18995-p1udt9281) Units=km Length=0.0803591 bus1=p1udt9281.1.2.3 bus2=p1udt18995.1.2.3 switch=n enabled=y phases=3 Linecode=3P_OH_AL_ACSR_4/0_Penguin_12_47_0_3_3_3_3

New Line.l(r:p1udt24805-p1udt9281) Units=km Length=0.045081800000000005 bus1=p1udt24805.1.2.3 bus2=p1udt9281.1.2.3 switch=n enabled=y phases=3 Linecode=3P_OH_AL_ACSR_4/0_Penguin_12_47_0_3_3_3_3

New Line.l(r:p1udt24805-p1udt25117) Units=km Length=0.0364044 bus1=p1udt25117.1.2.3 bus2=p1udt24805.1.2.3 switch=n enabled=y phases=3 Linecode=3P_OH_AL_ACSR_4/0_Penguin_12_47_0_3_3_3_3

New Line.l(r:p1udt13121-p1udt25117) Units=km Length=0.181001 bus1=p1udt13121.1.2.3 bus2=p1udt25117.1.2.3 switch=n enabled=y phases=3 Linecode=3P_OH_AL_ACSR_4/0_Penguin_12_47_0_3_3_3_3

New Line.l(r:p1udt13121-p1uhs9_1247) Units=km Length=0.176581 bus1=p1udt13121-p1uhs9_1247x.1.2.3 bus2=p1udt13121.1.2.3 switch=n enabled=y phases=3 Linecode=3P_OH_AL_ACSR_4/0_Penguin_12_47_0_3_3_3_3

New Line.l(r:p1udt13121lv-p1ulv18757) Units=km Length=0.00954528 bus1=p1udt13121lv.1.2.3 bus2=p1ulv18757.1.2.3 switch=n enabled=y phases=3 Linecode=3P_UG_AL_350kcmil_15_0_416_0_3_3_3_3

New Line.l(r:p1udt24388lv-p1ulv59612) Units=km Length=0.0158267 bus1=p1udt24388lv.1.2.3 bus2=p1ulv59612.1.2.3 switch=n enabled=y phases=3 Linecode=3P_UG_AL_350kcmil_15_0_416_0_3_3_3_3

New Line.l(r:p1udt5943lv-p1ulv6835) Units=km Length=0.00505015 bus1=p1udt5943lv.1.2.3 bus2=p1ulv6835.1.2.3 switch=n enabled=y phases=3 Linecode=3P_UG_AL_350kcmil_15_0_416_0_3_3_3_3

New Line.l(r:p1udt20963lv-p1ulv42212) Units=km Length=0.0168222 bus1=p1udt20963lv.1.2.3 bus2=p1ulv42212.1.2.3 switch=n enabled=y phases=3 Linecode=3P_UG_AL_350kcmil_15_0_416_0_3_3_3_3

New Line.l(r:p1udm58686-p1ulv62745) Units=km Length=0.0147894 bus1=p1udm58686.1.2.3 bus2=p1ulv62745.1.2.3 switch=n enabled=y phases=3 Linecode=3P_UG_AL_350kcmil_15_0_416_0_3_3_3_3

New Line.l(r:p1udm58686-p1udt20963lv) Units=km Length=0.004226360000000001 bus1=p1udt20963lv.1.2.3 bus2=p1udm58686.1.2.3 switch=n enabled=y phases=3 Linecode=3P_UG_AL_350kcmil_15_0_416_0_3_3_3_3

New Line.l(r:p1udt25197lv-p1ulv64636) Units=km Length=0.0144403 bus1=p1udt25197lv.1.2.3 bus2=p1ulv64636.1.2.3 switch=n enabled=y phases=3 Linecode=3P_UG_AL_350kcmil_15_0_416_0_3_3_3_3

New Line.l(r:p1udt20963-p1udt25197) Units=km Length=0.0589744 bus1=p1udt20963.1.2.3 bus2=p1udt25197.1.2.3 switch=n enabled=y phases=3 Linecode=3P_OH_AL_ACSR_4/0_Penguin_12_47_0_3_3_3_3

New Line.l(r:p1udt20963-p1udt5943) Units=km Length=0.033101700000000005 bus1=p1udt5943.1.2.3 bus2=p1udt20963.1.2.3 switch=n enabled=y phases=3 Linecode=3P_OH_AL_ACSR_4/0_Penguin_12_47_0_3_3_3_3

New Line.l(r:p1udt24388-p1udt5943) Units=km Length=0.045324300000000005 bus1=p1udt24388.1.2.3 bus2=p1udt5943.1.2.3 switch=n enabled=y phases=3 Linecode=3P_OH_AL_ACSR_4/0_Penguin_12_47_0_3_3_3_3

New Line.l(r:p1udt13121-p1udt24388) Units=km Length=0.0477298 bus1=p1udt13121.1.2.3 bus2=p1udt24388.1.2.3 switch=n enabled=y phases=3 Linecode=3P_OH_AL_ACSR_4/0_Penguin_12_47_0_3_3_3_3

New Line.l(r:p1udt25117lv-p1ulv64006) Units=km Length=0.00940109 bus1=p1udt25117lv.1.2.3 bus2=p1ulv64006.1.2.3 switch=n enabled=y phases=3 Linecode=3P_UG_AL_350kcmil_15_0_416_0_3_3_3_3

New Line.l(r:p1udt24805lv-p1ulv62102) Units=km Length=0.013629000000000002 bus1=p1udt24805lv.1.2.3 bus2=p1ulv62102.1.2.3 switch=n enabled=y phases=3 Linecode=3P_UG_AL_350kcmil_15_0_416_0_3_3_3_3

New Line.l(r:p1udt18995lv-p1ulv34679) Units=km Length=0.0137703 bus1=p1udt18995lv.1.2.3 bus2=p1ulv34679.1.2.3 switch=n enabled=y phases=3 Linecode=3P_UG_AL_350kcmil_15_0_416_0_3_3_3_3

New Line.l(r:p1udt23862lv-p1ulv56597) Units=km Length=0.01693 bus1=p1udt23862lv.1.2.3 bus2=p1ulv56597.1.2.3 switch=n enabled=y phases=3 Linecode=3P_UG_AL_350kcmil_15_0_416_0_3_3_3_3

New Line.l(r:p1udt17833lv-p1ulv30825) Units=km Length=0.0186332 bus1=p1udt17833lv.1.2.3 bus2=p1ulv30825.1.2.3 switch=n enabled=y phases=3 Linecode=3P_UG_AL_350kcmil_15_0_416_0_3_3_3_3

New Line.l(r:p1udt1694lv-p1ulv1771) Units=km Length=0.00422412 bus1=p1udt1694lv.1.2.3 bus2=p1ulv1771.1.2.3 switch=n enabled=y phases=3 Linecode=3P_UG_AL_350kcmil_15_0_416_0_3_3_3_3

New Line.l(r:p1udt24806lv-p1ulv62103) Units=km Length=0.0126203 bus1=p1udt24806lv.1.2.3 bus2=p1ulv62103.1.2.3 switch=n enabled=y phases=3 Linecode=3P_UG_AL_350kcmil_15_0_416_0_3_3_3_3

New Line.l(r:p1udt21948lv-p1ulv46686) Units=km Length=0.030936 bus1=p1udt21948lv.1.2.3 bus2=p1ulv46686.1.2.3 switch=n enabled=y phases=3 Linecode=3P_UG_AL_350kcmil_15_0_416_0_3_3_3_3

New Line.l(r:p1udt5944lv-p1ulv6836) Units=km Length=0.0118136 bus1=p1udt5944lv.1.2.3 bus2=p1ulv6836.1.2.3 switch=n enabled=y phases=3 Linecode=3P_UG_AL_350kcmil_15_0_416_0_3_3_3_3

New Line.l(r:p1udt9284lv-p1ulv11785) Units=km Length=0.0109763 bus1=p1udt9284lv.1.2.3 bus2=p1ulv11785.1.2.3 switch=n enabled=y phases=3 Linecode=3P_UG_AL_350kcmil_15_0_416_0_3_3_3_3

New Line.l(r:p1udt5944-p1udt9284) Units=km Length=0.0536056 bus1=p1udt5944.1.2.3 bus2=p1udt9284.1.2.3 switch=n enabled=y phases=3 Linecode=3P_OH_AL_ACSR_4/0_Penguin_12_47_0_3_3_3_3

New Line.l(r:p1udt18400lv-p1ulv32731) Units=km Length=0.014277300000000001 bus1=p1udt18400lv.1.2.3 bus2=p1ulv32731.1.2.3 switch=n enabled=y phases=3 Linecode=3P_UG_AL_350kcmil_15_0_416_0_3_3_3_3

New Line.l(r:p1udt18400-p1udt5944) Units=km Length=0.028127500000000003 bus1=p1udt5944.1.2.3 bus2=p1udt18400.1.2.3 switch=n enabled=y phases=3 Linecode=3P_OH_AL_ACSR_4/0_Penguin_12_47_0_3_3_3_3

New Line.l(r:p1udt21948-p1udt5944) Units=km Length=0.127333 bus1=p1udt21948.1.2.3 bus2=p1udt5944.1.2.3 switch=n enabled=y phases=3 Linecode=3P_OH_AL_ACSR_4/0_Penguin_12_47_0_3_3_3_3

New Line.l(r:p1udt21098lv-p1ulv42814) Units=km Length=0.0106522 bus1=p1udt21098lv.1.2.3 bus2=p1ulv42814.1.2.3 switch=n enabled=y phases=3 Linecode=3P_UG_AL_350kcmil_15_0_416_0_3_3_3_3

New Line.l(r:p1udt3417lv-p1ulv3674) Units=km Length=0.0111519 bus1=p1udt3417lv.1.2.3 bus2=p1ulv3674.1.2.3 switch=n enabled=y phases=3 Linecode=3P_UG_AL_350kcmil_15_0_416_0_3_3_3_3

New Line.l(r:p1udt12458lv-p1ulv17428) Units=km Length=0.00866402 bus1=p1udt12458lv.1.2.3 bus2=p1ulv17428.1.2.3 switch=n enabled=y phases=3 Linecode=3P_UG_AL_350kcmil_15_0_416_0_3_3_3_3

New Line.l(r:p1udt17834lv-p1ulv30826) Units=km Length=0.00907428 bus1=p1udt17834lv.1.2.3 bus2=p1ulv30826.1.2.3 switch=n enabled=y phases=3 Linecode=3P_UG_AL_350kcmil_15_0_416_0_3_3_3_3

New Line.l(r:p1udt5945lv-p1ulv6837) Units=km Length=0.008140230000000002 bus1=p1udt5945lv.1.2.3 bus2=p1ulv6837.1.2.3 switch=n enabled=y phases=3 Linecode=3P_UG_AL_350kcmil_15_0_416_0_3_3_3_3

New Line.l(r:p1udt17834-p1udt5945) Units=km Length=0.0286123 bus1=p1udt17834.1.2.3 bus2=p1udt5945.1.2.3 switch=n enabled=y phases=3 Linecode=3P_OH_AL_ACSR_4/0_Penguin_12_47_0_3_3_3_3

New Line.l(r:p1udt23395lv-p1ulv54158) Units=km Length=0.009371690000000002 bus1=p1udt23395lv.1.2.3 bus2=p1ulv54158.1.2.3 switch=n enabled=y phases=3 Linecode=3P_UG_AL_350kcmil_15_0_416_0_3_3_3_3

New Line.l(r:p1udt9285lv-p1ulv11786) Units=km Length=0.007660770000000001 bus1=p1udt9285lv.1.2.3 bus2=p1ulv11786.1.2.3 switch=n enabled=y phases=3 Linecode=3P_UG_AL_350kcmil_15_0_416_0_3_3_3_3

New Line.l(r:p1udt9285-p1umv54) Units=km Length=0.519682 bus1=p1udt9285.1.2.3 bus2=p1umv54.1.2.3 switch=n enabled=y phases=3 Linecode=3P_OH_AL_ACSR_4/0_Penguin_12_47_0_3_3_3_3

New Line.l(r:p1udt5946lv-p1ulv6838) Units=km Length=0.00998447 bus1=p1udt5946lv.1.2.3 bus2=p1ulv6838.1.2.3 switch=n enabled=y phases=3 Linecode=3P_UG_AL_750kcmil_25_0_416_0_3_3_3_3

New Line.l(r:p1udt21098-p1udt5946) Units=km Length=0.284499 bus1=p1udt21098.1.2.3 bus2=p1udt5946.1.2.3 switch=n enabled=y phases=3 Linecode=3P_OH_AL_ACSR_4/0_Penguin_12_47_0_3_3_3_3

New Line.l(r:p1udt9283lv-p1ulv11784) Units=km Length=0.0175747 bus1=p1udt9283lv.1.2.3 bus2=p1ulv11784.1.2.3 switch=n enabled=y phases=3 Linecode=3P_UG_AL_350kcmil_15_0_416_0_3_3_3_3

New Line.l(r:p1udt9283-p1umv57) Units=km Length=0.0837129 bus1=p1udt9283.1.2.3 bus2=p1udt9283_b1_1.1.2.3 switch=n enabled=y phases=3 Linecode=3P_OH_AL_ACSR_4/0_Penguin_12_47_0_3_3_3_3

New Line.l(r:p1udt18220lv-p1ulv32093) Units=km Length=0.0158802 bus1=p1udt18220lv.1.2.3 bus2=p1ulv32093.1.2.3 switch=n enabled=y phases=3 Linecode=3P_UG_AL_350kcmil_15_0_416_0_3_3_3_3

New Line.l(r:p1udt21264lv-p1ulv43499) Units=km Length=0.011641 bus1=p1udt21264lv.1.2.3 bus2=p1ulv43499.1.2.3 switch=n enabled=y phases=3 Linecode=3P_UG_AL_350kcmil_15_0_416_0_3_3_3_3

New Line.l(r:p1udt13443lv-p1ulv19420) Units=km Length=0.0117769 bus1=p1udt13443lv.1.2.3 bus2=p1ulv19420.1.2.3 switch=n enabled=y phases=3 Linecode=3P_UG_AL_350kcmil_15_0_416_0_3_3_3_3

New Line.l(r:p1udt18219lv-p1ulv32092) Units=km Length=0.00560257 bus1=p1udt18219lv.1.2.3 bus2=p1ulv32092.1.2.3 switch=n enabled=y phases=3 Linecode=3P_UG_AL_350kcmil_15_0_416_0_3_3_3_3

New Line.l(r:p1udt17428lv-p1ulv29575) Units=km Length=0.0155558 bus1=p1udt17428lv.1.2.3 bus2=p1ulv29575.1.2.3 switch=n enabled=y phases=3 Linecode=3P_UG_AL_350kcmil_15_0_416_0_3_3_3_3

New Line.l(r:p1udt22199lv-p1ulv47907) Units=km Length=0.0133091 bus1=p1udt22199lv.1.2.3 bus2=p1ulv47907.1.2.3 switch=n enabled=y phases=3 Linecode=3P_UG_AL_350kcmil_15_0_416_0_3_3_3_3

New Line.l(r:p1udt25013lv-p1ulv63385) Units=km Length=0.0147269 bus1=p1udt25013lv.1.2.3 bus2=p1ulv63385.1.2.3 switch=n enabled=y phases=3 Linecode=3P_UG_AL_350kcmil_15_0_416_0_3_3_3_3

New Line.l(r:p1udt11785lv-p1ulv16156) Units=km Length=0.0174116 bus1=p1udt11785lv.1.2.3 bus2=p1ulv16156.1.2.3 switch=n enabled=y phases=3 Linecode=3P_UG_AL_350kcmil_15_0_416_0_3_3_3_3

New Line.l(r:p1udt11785-p1udt18221) Units=km Length=0.0473302 bus1=p1udt18221.1.2.3 bus2=p1udt11785.1.2.3 switch=n enabled=y phases=3 Linecode=3P_OH_AL_ACSR_4/0_Penguin_12_47_0_3_3_3_3

New Line.l(r:p1udt25198lv-p1ulv64637) Units=km Length=0.0128438 bus1=p1udt25198lv.1.2.3 bus2=p1ulv64637.1.2.3 switch=n enabled=y phases=3 Linecode=3P_UG_AL_350kcmil_15_0_416_0_3_3_3_3

New Line.l(r:p1udt18221-p1udt25198) Units=km Length=0.001 bus1=p1udt18221.1.2.3 bus2=p1udt25198.1.2.3 switch=n enabled=y phases=3 Linecode=3P_OH_AL_ACSR_4/0_Penguin_12_47_0_3_3_3_3

New Line.l(r:p1udt18221-p1udt25013) Units=km Length=0.0507968 bus1=p1udt25013.1.2.3 bus2=p1udt18221.1.2.3 switch=n enabled=y phases=3 Linecode=3P_OH_AL_ACSR_4/0_Penguin_12_47_0_3_3_3_3

New Line.l(r:p1udt22199-p1udt25013) Units=km Length=0.0557418 bus1=p1udt22199.1.2.3 bus2=p1udt25013.1.2.3 switch=n enabled=y phases=3 Linecode=3P_OH_AL_ACSR_4/0_Penguin_12_47_0_3_3_3_3

New Line.l(r:p1udt17428-p1udt22199) Units=km Length=0.0706118 bus1=p1udt17428.1.2.3 bus2=p1udt22199.1.2.3 switch=n enabled=y phases=3 Linecode=3P_OH_AL_ACSR_4/0_Penguin_12_47_0_3_3_3_3

New Line.l(r:p1udt17428-p1udt18219) Units=km Length=0.130062 bus1=p1udt18219.1.2.3 bus2=p1udt17428.1.2.3 switch=n enabled=y phases=3 Linecode=3P_OH_AL_ACSR_4/0_Penguin_12_47_0_3_3_3_3

New Line.l(r:p1udt18219-p1udt20221) Units=km Length=0.0120987 bus1=p1udt20221.1.2.3 bus2=p1udt18219.1.2.3 switch=n enabled=y phases=3 Linecode=3P_OH_AL_ACSR_4/0_Penguin_12_47_0_3_3_3_3

New Line.l(r:p1udt13443-p1udt20221) Units=km Length=0.0169674 bus1=p1udt13443.1.2.3 bus2=p1udt20221.1.2.3 switch=n enabled=y phases=3 Linecode=3P_OH_AL_ACSR_4/0_Penguin_12_47_0_3_3_3_3

New Line.l(r:p1udt13443-p1udt21264) Units=km Length=0.0238479 bus1=p1udt21264.1.2.3 bus2=p1udt13443.1.2.3 switch=n enabled=y phases=3 Linecode=3P_OH_AL_ACSR_4/0_Penguin_12_47_0_3_3_3_3

New Line.l(r:p1udt21264-p1udt21404) Units=km Length=0.0546677 bus1=p1udt21404.1.2.3 bus2=p1udt21264.1.2.3 switch=n enabled=y phases=3 Linecode=3P_OH_AL_ACSR_4/0_Penguin_12_47_0_3_3_3_3

New Line.l(r:p1udt18220-p1udt21404) Units=km Length=0.0644773 bus1=p1udt18220.1.2.3 bus2=p1udt21404.1.2.3 switch=n enabled=y phases=3 Linecode=3P_OH_AL_ACSR_4/0_Penguin_12_47_0_3_3_3_3

New Line.l(r:p1udt18220-p1udt23862) Units=km Length=0.0553276 bus1=p1udt23862.1.2.3 bus2=p1udt18220.1.2.3 switch=n enabled=y phases=3 Linecode=3P_OH_AL_ACSR_4/0_Penguin_12_47_0_3_3_3_3

New Line.l(r:p1udt21661lv-p1ulv45402) Units=km Length=0.0132328 bus1=p1udt21661lv.1.2.3 bus2=p1ulv45402.1.2.3 switch=n enabled=y phases=3 Linecode=3P_UG_AL_350kcmil_15_0_416_0_3_3_3_3

New Line.l(r:p1udt23861lv-p1ulv56596) Units=km Length=0.0121649 bus1=p1udt23861lv.1.2.3 bus2=p1ulv56596.1.2.3 switch=n enabled=y phases=3 Linecode=3P_UG_AL_350kcmil_15_0_416_0_3_3_3_3

New Line.l(r:p1udt20060lv-p1ulv38464) Units=km Length=0.0107649 bus1=p1udt20060lv.1.2.3 bus2=p1ulv38464.1.2.3 switch=n enabled=y phases=3 Linecode=3P_UG_AL_350kcmil_15_0_416_0_3_3_3_3

New Line.l(r:p1udt20060-p1udt23861) Units=km Length=0.0617287 bus1=p1udt23861.1.2.3 bus2=p1udt20060.1.2.3 switch=n enabled=y phases=3 Linecode=3P_OH_AL_ACSR_4/0_Penguin_12_47_0_3_3_3_3

New Line.l(r:p1udt21661-p1udt23861) Units=km Length=0.06828730000000001 bus1=p1udt21661.1.2.3 bus2=p1udt23861.1.2.3 switch=n enabled=y phases=3 Linecode=3P_OH_AL_ACSR_4/0_Penguin_12_47_0_3_3_3_3

New Line.l(r:p1udt21661-p1udt23862) Units=km Length=0.0492891 bus1=p1udt23862.1.2.3 bus2=p1udt21661.1.2.3 switch=n enabled=y phases=3 Linecode=3P_OH_AL_ACSR_4/0_Penguin_12_47_0_3_3_3_3

New Line.l(r:p1udt13443-p1udt20060) Units=km Length=0.0247391 bus1=p1udt13443-p1udt20060x.1.2.3 bus2=p1udt13443.1.2.3 switch=n enabled=y phases=3 Linecode=3P_OH_AL_ACSR_1033kcmil_Curlew_12.47_1_3_3_3_3

New Line.l(r:p1udt22199-p1udt9284) Units=km Length=0.0925154 bus1=p1udt22199-p1udt9284x.1.2.3 bus2=p1udt22199.1.2.3 switch=n enabled=y phases=3 Linecode=3P_OH_AL_ACSR_1033kcmil_Curlew_12.47_1_3_3_3_3

New Line.elbswitch(r:p1udt21523-p1udt9285)p1u_265840 Units=km Length=0.001 bus1=p1udt9285.1.2.3 bus2=p1udt21523-p1udt9285x.1.2.3 switch=y enabled=n phases=3 Linecode=elbswitch_3_3_3_3

New Line.elbswitch(r:p1udt13443-p1udt20060)p1u_265852 Units=km Length=0.001 bus1=p1udt20060.1.2.3 bus2=p1udt13443-p1udt20060x.1.2.3 switch=y enabled=n phases=3 Linecode=elbswitch_3_3_3_3

New Line.elbswitch(r:p1udt22199-p1udt9284)p1u_265989 Units=km Length=0.001 bus1=p1udt9284.1.2.3 bus2=p1udt22199-p1udt9284x.1.2.3 switch=y enabled=n phases=3 Linecode=elbswitch_3_5_3_3_3

New Line.l(r:p1udt9283-p1umv57)_disconnect Units=km Length=0.001 bus1=p1udt9283_b1_1.1.2.3 bus2=p1udt9283_b2_1.1.2.3 switch=y enabled=y phases=3 Linecode=3P_OH_AL_ACSR_4/0_Penguin_12_47_0_3_3_3_3

New Line.l(r:p1udt9283-p1umv57)_cont Units=km Length=0.7624161 bus1=p1udt9283_b2_1.1.2.3 bus2=p1umv57.1.2.3 switch=n enabled=y phases=3 Linecode=3P_OH_AL_ACSR_4/0_Penguin_12_47_0_3_3_3_3

