New Line.l(r:p1rdt24lv-p1rlv10991) Units=km Length=0.0687823 bus1=p1rdt24lv.1.2 bus2=p1rlv10991.1.2 switch=n enabled=y phases=2 Linecode=1P_OH_AL_4/0_Zuzara_0_416_0_2_2_2_2_2_2_2_2_2_2_2_2_2_2_2_2_2_2_2_2_2_2_2_2_2_2_2_2_2

New Line.l(r:p1rdm46-p1rlv25) Units=km Length=0.0480672 bus1=p1rdm46.1.2 bus2=p1rlv25.1.2 switch=n enabled=y phases=2 Linecode=1P_OH_AL_4/0_Zuzara_0_416_0_2_2_2_2_2_2_2_2_2_2_2_2_2_2_2_2_2_2_2_2_2_2_2_2_2_2_2_2_2

New Line.l(r:p1rdm46-p1rdt24lv) Units=km Length=0.0196559 bus1=p1rdt24lv.1.2 bus2=p1rdm46.1.2 switch=n enabled=y phases=2 Linecode=1P_OH_AL_2/0_Rucina_0_416_0_2_2_2_2_2_2_2_2_2_2_2_2_2_2_2_2_2_2_2_2_2_2_2_2_2_2_2_2_2

New Line.l(r:p1rdt25lv-p1rlv26) Units=km Length=0.022853500000000002 bus1=p1rdt25lv.1.2 bus2=p1rlv26.1.2 switch=n enabled=y phases=2 Linecode=1P_OH_AL_2/0_Rucina_0_416_0_2_2_2_2_2_2_2_2_2_2_2_2_2_2_2_2_2_2_2_2_2_2_2_2_2_2_2_2_2

New Line.l(r:p1rdt25lv-p1rlv10174) Units=km Length=0.022853500000000002 bus1=p1rdt25lv.1.2 bus2=p1rlv10174.1.2 switch=n enabled=y phases=2 Linecode=1P_OH_AL_2/0_Rucina_0_416_0_2_2_2_2_2_2_2_2_2_2_2_2_2_2_2_2_2_2_2_2_2_2_2_2_2_2_2_2_2

New Line.l(r:p1rdt28lv-p1rlv29) Units=km Length=0.0185017 bus1=p1rdt28lv.1.2 bus2=p1rlv29.1.2 switch=n enabled=y phases=2 Linecode=1P_OH_AL_2/0_Rucina_0_416_0_2_2_2_2_2_2_2_2_2_2_2_2_2_2_2_2_2_2_2_2_2_2_2_2_2_2_2_2_2

New Line.l(r:p1rdt29lv-p1rlv30) Units=km Length=0.018236800000000004 bus1=p1rdt29lv.1.2 bus2=p1rlv30.1.2 switch=n enabled=y phases=2 Linecode=1P_OH_AL_2/0_Rucina_0_416_0_2_2_2_2_2_2_2_2_2_2_2_2_2_2_2_2_2_2_2_2_2_2_2_2_2_2_2_2_2

New Line.l(r:p1rdt30lv-p1rlv3514) Units=km Length=0.15431300000000003 bus1=p1rdt30lv.1.2 bus2=p1rlv3514.1.2 switch=n enabled=y phases=2 Linecode=1P_OH_AL_4/0_Zuzara_0_416_0_2_2_2_2_2_2_2_2_2_2_2_2_2_2_2_2_2_2_2_2_2_2_2_2_2_2_2_2_2

New Line.l(r:p1rdt30lv-p1rlv3908) Units=km Length=0.05160240000000001 bus1=p1rdt30lv.1.2 bus2=p1rlv3908.1.2 switch=n enabled=y phases=2 Linecode=1P_OH_AL_4/0_Zuzara_0_416_0_2_2_2_2_2_2_2_2_2_2_2_2_2_2_2_2_2_2_2_2_2_2_2_2_2_2_2_2_2

New Line.l(r:p1rdm58-p1rlv31) Units=km Length=0.0623558 bus1=p1rdm58.1.2 bus2=p1rlv31.1.2 switch=n enabled=y phases=2 Linecode=1P_OH_AL_4/0_Zuzara_0_416_0_2_2_2_2_2_2_2_2_2_2_2_2_2_2_2_2_2_2_2_2_2_2_2_2_2_2_2_2_2

New Line.l(r:p1rdm58-p1rdt30lv) Units=km Length=0.0162067 bus1=p1rdt30lv.1.2 bus2=p1rdm58.1.2 switch=n enabled=y phases=2 Linecode=1P_OH_AL_2/0_Rucina_0_416_0_2_2_2_2_2_2_2_2_2_2_2_2_2_2_2_2_2_2_2_2_2_2_2_2_2_2_2_2_2

New Line.l(r:p1rdm62-p1rlv10725) Units=km Length=0.0774659 bus1=p1rdm62.1.2 bus2=p1rlv10725.1.2 switch=n enabled=y phases=2 Linecode=1P_OH_AL_4/0_Zuzara_0_416_0_2_2_2_2_2_2_2_2_2_2_2_2_2_2_2_2_2_2_2_2_2_2_2_2_2_2_2_2_2

New Line.l(r:p1rdm59-p1rlv156) Units=km Length=0.0720804 bus1=p1rdm59.1.2 bus2=p1rlv156.1.2 switch=n enabled=y phases=2 Linecode=1P_OH_AL_4/0_Zuzara_0_416_0_2_2_2_2_2_2_2_2_2_2_2_2_2_2_2_2_2_2_2_2_2_2_2_2_2_2_2_2_2

New Line.l(r:p1rdm59-p1rdm62) Units=km Length=0.0140361 bus1=p1rdm62.1.2 bus2=p1rdm59.1.2 switch=n enabled=y phases=2 Linecode=1P_OH_AL_2/0_Rucina_0_416_0_2_2_2_2_2_2_2_2_2_2_2_2_2_2_2_2_2_2_2_2_2_2_2_2_2_2_2_2_2

New Line.l(r:p1rdm62-p1rdt30lv) Units=km Length=0.0140478 bus1=p1rdt30lv.1.2 bus2=p1rdm62.1.2 switch=n enabled=y phases=2 Linecode=1P_OH_AL_2/0_Rucina_0_416_0_2_2_2_2_2_2_2_2_2_2_2_2_2_2_2_2_2_2_2_2_2_2_2_2_2_2_2_2_2

New Line.l(r:p1rdt31lv-p1rlv8974) Units=km Length=0.0372274 bus1=p1rdt31lv.1.2 bus2=p1rlv8974.1.2 switch=n enabled=y phases=2 Linecode=1P_OH_AL_4/0_Zuzara_0_416_0_2_2_2_2_2_2_2_2_2_2_2_2_2_2_2_2_2_2_2_2_2_2_2_2_2_2_2_2_2

New Line.l(r:p1rdm63-p1rlv32) Units=km Length=0.014122000000000001 bus1=p1rdm63.1.2 bus2=p1rlv32.1.2 switch=n enabled=y phases=2 Linecode=1P_OH_AL_2/0_Rucina_0_416_0_2_2_2_2_2_2_2_2_2_2_2_2_2_2_2_2_2_2_2_2_2_2_2_2_2_2_2_2_2

New Line.l(r:p1rdm63-p1rlv3909) Units=km Length=0.0460017 bus1=p1rdm63.1.2 bus2=p1rlv3909.1.2 switch=n enabled=y phases=2 Linecode=1P_OH_AL_4/0_Zuzara_0_416_0_2_2_2_2_2_2_2_2_2_2_2_2_2_2_2_2_2_2_2_2_2_2_2_2_2_2_2_2_2

New Line.l(r:p1rdm63-p1rdt31lv) Units=km Length=0.055054000000000006 bus1=p1rdt31lv.1.2 bus2=p1rdm63.1.2 switch=n enabled=y phases=2 Linecode=1P_OH_AL_4/0_Zuzara_0_416_0_2_2_2_2_2_2_2_2_2_2_2_2_2_2_2_2_2_2_2_2_2_2_2_2_2_2_2_2_2

New Line.l(r:p1rdm67-p1rlv11970) Units=km Length=0.00689456 bus1=p1rdm67.1.2 bus2=p1rlv11970.1.2 switch=n enabled=y phases=2 Linecode=1P_OH_AL_2/0_Rucina_0_416_0_2_2_2_2_2_2_2_2_2_2_2_2_2_2_2_2_2_2_2_2_2_2_2_2_2_2_2_2_2

New Line.l(r:p1rdm65-p1rlv4474) Units=km Length=0.00895373 bus1=p1rdm65.1.2 bus2=p1rlv4474.1.2 switch=n enabled=y phases=2 Linecode=1P_OH_AL_2/0_Rucina_0_416_0_2_2_2_2_2_2_2_2_2_2_2_2_2_2_2_2_2_2_2_2_2_2_2_2_2_2_2_2_2

New Line.l(r:p1rdm65-p1rdm67) Units=km Length=0.024025 bus1=p1rdm67.1.2 bus2=p1rdm65.1.2 switch=n enabled=y phases=2 Linecode=1P_OH_AL_2/0_Rucina_0_416_0_2_2_2_2_2_2_2_2_2_2_2_2_2_2_2_2_2_2_2_2_2_2_2_2_2_2_2_2_2

New Line.l(r:p1rdm67-p1rdt31lv) Units=km Length=0.0247556 bus1=p1rdt31lv.1.2 bus2=p1rdm67.1.2 switch=n enabled=y phases=2 Linecode=1P_OH_AL_2/0_Rucina_0_416_0_2_2_2_2_2_2_2_2_2_2_2_2_2_2_2_2_2_2_2_2_2_2_2_2_2_2_2_2_2

New Line.l(r:p1rdt148lv-p1rlv152) Units=km Length=0.0246297 bus1=p1rdt148lv.1.2 bus2=p1rlv152.1.2 switch=n enabled=y phases=2 Linecode=1P_OH_AL_2/0_Rucina_0_416_0_2_2_2_2_2_2_2_2_2_2_2_2_2_2_2_2_2_2_2_2_2_2_2_2_2_2_2_2_2

New Line.l(r:p1rdm359-p1rlv6565) Units=km Length=0.04218160000000001 bus1=p1rdm359.1.2 bus2=p1rlv6565.1.2 switch=n enabled=y phases=2 Linecode=1P_OH_AL_4/0_Zuzara_0_416_0_2_2_2_2_2_2_2_2_2_2_2_2_2_2_2_2_2_2_2_2_2_2_2_2_2_2_2_2_2

New Line.l(r:p1rdm359-p1rdt148lv) Units=km Length=0.0192666 bus1=p1rdt148lv.1.2 bus2=p1rdm359.1.2 switch=n enabled=y phases=2 Linecode=1P_OH_AL_2/0_Rucina_0_416_0_2_2_2_2_2_2_2_2_2_2_2_2_2_2_2_2_2_2_2_2_2_2_2_2_2_2_2_2_2

New Line.l(r:p1rdt150lv-p1rlv5268) Units=km Length=0.0601206 bus1=p1rdt150lv.1.2 bus2=p1rlv5268.1.2 switch=n enabled=y phases=2 Linecode=1P_OH_AL_4/0_Zuzara_0_416_0_2_2_2_2_2_2_2_2_2_2_2_2_2_2_2_2_2_2_2_2_2_2_2_2_2_2_2_2_2

New Line.l(r:p1rdm362-p1rlv154) Units=km Length=0.0388781 bus1=p1rdm362.1.2 bus2=p1rlv154.1.2 switch=n enabled=y phases=2 Linecode=1P_OH_AL_4/0_Zuzara_0_416_0_2_2_2_2_2_2_2_2_2_2_2_2_2_2_2_2_2_2_2_2_2_2_2_2_2_2_2_2_2

New Line.l(r:p1rdm362-p1rdt150lv) Units=km Length=0.0188987 bus1=p1rdt150lv.1.2 bus2=p1rdm362.1.2 switch=n enabled=y phases=2 Linecode=1P_OH_AL_2/0_Rucina_0_416_0_2_2_2_2_2_2_2_2_2_2_2_2_2_2_2_2_2_2_2_2_2_2_2_2_2_2_2_2_2

New Line.l(r:p1rdt151lv-p1rlv155) Units=km Length=0.0117342 bus1=p1rdt151lv.1.2 bus2=p1rlv155.1.2 switch=n enabled=y phases=2 Linecode=1P_OH_AL_2/0_Rucina_0_416_0_2_2_2_2_2_2_2_2_2_2_2_2_2_2_2_2_2_2_2_2_2_2_2_2_2_2_2_2_2

New Line.l(r:p1rdt151lv-p1rlv10724) Units=km Length=0.0117342 bus1=p1rdt151lv.1.2 bus2=p1rlv10724.1.2 switch=n enabled=y phases=2 Linecode=1P_OH_AL_2/0_Rucina_0_416_0_2_2_2_2_2_2_2_2_2_2_2_2_2_2_2_2_2_2_2_2_2_2_2_2_2_2_2_2_2

New Line.l(r:p1rdt153lv-p1rlv158) Units=km Length=0.00944068 bus1=p1rdt153lv.1.2 bus2=p1rlv158.1.2 switch=n enabled=y phases=2 Linecode=1P_OH_AL_2/0_Rucina_0_416_0_2_2_2_2_2_2_2_2_2_2_2_2_2_2_2_2_2_2_2_2_2_2_2_2_2_2_2_2_2

New Line.l(r:p1rdt283lv-p1rlv291) Units=km Length=0.0656751 bus1=p1rdt283lv.1.2 bus2=p1rlv291.1.2 switch=n enabled=y phases=2 Linecode=1P_OH_AL_4/0_Zuzara_0_416_0_2_2_2_2_2_2_2_2_2_2_2_2_2_2_2_2_2_2_2_2_2_2_2_2_2_2_2_2_2

New Line.l(r:p1rdt283lv-p1rlv3503) Units=km Length=0.0656751 bus1=p1rdt283lv.1.2 bus2=p1rlv3503.1.2 switch=n enabled=y phases=2 Linecode=1P_OH_AL_4/0_Zuzara_0_416_0_2_2_2_2_2_2_2_2_2_2_2_2_2_2_2_2_2_2_2_2_2_2_2_2_2_2_2_2_2

New Line.l(r:p1rdt284lv-p1rlv292) Units=km Length=0.0254011 bus1=p1rdt284lv.1.2 bus2=p1rlv292.1.2 switch=n enabled=y phases=2 Linecode=1P_OH_AL_2/0_Rucina_0_416_0_2_2_2_2_2_2_2_2_2_2_2_2_2_2_2_2_2_2_2_2_2_2_2_2_2_2_2_2_2

New Line.l(r:p1rdt285lv-p1rlv293) Units=km Length=0.0311895 bus1=p1rdt285lv.1.2 bus2=p1rlv293.1.2 switch=n enabled=y phases=2 Linecode=1P_OH_AL_4/0_Zuzara_0_416_0_2_2_2_2_2_2_2_2_2_2_2_2_2_2_2_2_2_2_2_2_2_2_2_2_2_2_2_2_2

New Line.l(r:p1rdt285lv-p1rlv3354) Units=km Length=0.0794524 bus1=p1rdt285lv.1.2 bus2=p1rlv3354.1.2 switch=n enabled=y phases=2 Linecode=1P_OH_AL_4/0_Zuzara_0_416_0_2_2_2_2_2_2_2_2_2_2_2_2_2_2_2_2_2_2_2_2_2_2_2_2_2_2_2_2_2

New Line.l(r:p1rdt285lv-p1rlv13542) Units=km Length=0.05325800000000001 bus1=p1rdt285lv.1.2 bus2=p1rlv13542.1.2 switch=n enabled=y phases=2 Linecode=1P_OH_AL_4/0_Zuzara_0_416_0_2_2_2_2_2_2_2_2_2_2_2_2_2_2_2_2_2_2_2_2_2_2_2_2_2_2_2_2_2

New Line.l(r:p1rdt289lv-p1rlv297) Units=km Length=0.015522900000000001 bus1=p1rdt289lv.1.2 bus2=p1rlv297.1.2 switch=n enabled=y phases=2 Linecode=1P_OH_AL_2/0_Rucina_0_416_0_2_2_2_2_2_2_2_2_2_2_2_2_2_2_2_2_2_2_2_2_2_2_2_2_2_2_2_2_2

New Line.l(r:p1rdt289lv-p1rlv551) Units=km Length=0.00645602 bus1=p1rdt289lv.1.2 bus2=p1rlv551.1.2 switch=n enabled=y phases=2 Linecode=1P_OH_AL_2/0_Rucina_0_416_0_2_2_2_2_2_2_2_2_2_2_2_2_2_2_2_2_2_2_2_2_2_2_2_2_2_2_2_2_2

New Line.l(r:p1rdt289lv-p1rlv7237) Units=km Length=0.0344004 bus1=p1rdt289lv.1.2 bus2=p1rlv7237.1.2 switch=n enabled=y phases=2 Linecode=1P_OH_AL_4/0_Zuzara_0_416_0_2_2_2_2_2_2_2_2_2_2_2_2_2_2_2_2_2_2_2_2_2_2_2_2_2_2_2_2_2

New Line.l(r:p1rdt289lv-p1rlv8709) Units=km Length=0.0225339 bus1=p1rdt289lv.1.2 bus2=p1rlv8709.1.2 switch=n enabled=y phases=2 Linecode=1P_OH_AL_2/0_Rucina_0_416_0_2_2_2_2_2_2_2_2_2_2_2_2_2_2_2_2_2_2_2_2_2_2_2_2_2_2_2_2_2

New Line.l(r:p1rdt289lv-p1rlv9491) Units=km Length=0.0199432 bus1=p1rdt289lv.1.2 bus2=p1rlv9491.1.2 switch=n enabled=y phases=2 Linecode=1P_OH_AL_2/0_Rucina_0_416_0_2_2_2_2_2_2_2_2_2_2_2_2_2_2_2_2_2_2_2_2_2_2_2_2_2_2_2_2_2

New Line.l(r:p1rdt289lv-p1rlv13676) Units=km Length=0.0557262 bus1=p1rdt289lv.1.2 bus2=p1rlv13676.1.2 switch=n enabled=y phases=2 Linecode=1P_OH_AL_4/0_Zuzara_0_416_0_2_2_2_2_2_2_2_2_2_2_2_2_2_2_2_2_2_2_2_2_2_2_2_2_2_2_2_2_2

New Line.l(r:p1rdt289lv-p1rlv13801) Units=km Length=0.0488698 bus1=p1rdt289lv.1.2 bus2=p1rlv13801.1.2 switch=n enabled=y phases=2 Linecode=1P_OH_AL_4/0_Zuzara_0_416_0_2_2_2_2_2_2_2_2_2_2_2_2_2_2_2_2_2_2_2_2_2_2_2_2_2_2_2_2_2

New Line.l(r:p1rdt290lv-p1rlv298) Units=km Length=0.001 bus1=p1rdt290lv.1.2 bus2=p1rlv298.1.2 switch=n enabled=y phases=2 Linecode=1P_OH_AL_4_Periwinkle_0_416_0_2_2_2_2_2_2_2_2_2_2_2_2_2_2_2_2_2_2_2_2_2_2_2_2_2_2_2_2_2

New Line.l(r:p1rdt405lv-p1rlv414) Units=km Length=0.0462776 bus1=p1rdt405lv.1.2 bus2=p1rlv414.1.2 switch=n enabled=y phases=2 Linecode=1P_OH_AL_4/0_Zuzara_0_416_0_2_2_2_2_2_2_2_2_2_2_2_2_2_2_2_2_2_2_2_2_2_2_2_2_2_2_2_2_2

New Line.l(r:p1rdt405lv-p1rlv6564) Units=km Length=0.0462776 bus1=p1rdt405lv.1.2 bus2=p1rlv6564.1.2 switch=n enabled=y phases=2 Linecode=1P_OH_AL_4/0_Zuzara_0_416_0_2_2_2_2_2_2_2_2_2_2_2_2_2_2_2_2_2_2_2_2_2_2_2_2_2_2_2_2_2

New Line.l(r:p1rdt408lv-p1rlv417) Units=km Length=0.0628702 bus1=p1rdt408lv.1.2 bus2=p1rlv417.1.2 switch=n enabled=y phases=2 Linecode=1P_OH_AL_4/0_Zuzara_0_416_0_2_2_2_2_2_2_2_2_2_2_2_2_2_2_2_2_2_2_2_2_2_2_2_2_2_2_2_2_2

New Line.l(r:p1rdt409lv-p1rlv418) Units=km Length=0.0177212 bus1=p1rdt409lv.1.2 bus2=p1rlv418.1.2 switch=n enabled=y phases=2 Linecode=1P_OH_AL_2/0_Rucina_0_416_0_2_2_2_2_2_2_2_2_2_2_2_2_2_2_2_2_2_2_2_2_2_2_2_2_2_2_2_2_2

New Line.l(r:p1rdt410lv-p1rlv8048) Units=km Length=0.0727146 bus1=p1rdt410lv.1.2 bus2=p1rlv8048.1.2 switch=n enabled=y phases=2 Linecode=1P_OH_AL_4/0_Zuzara_0_416_0_2_2_2_2_2_2_2_2_2_2_2_2_2_2_2_2_2_2_2_2_2_2_2_2_2_2_2_2_2

New Line.l(r:p1rdm963-p1rlv419) Units=km Length=0.0484792 bus1=p1rdm963.1.2 bus2=p1rlv419.1.2 switch=n enabled=y phases=2 Linecode=1P_OH_AL_4/0_Zuzara_0_416_0_2_2_2_2_2_2_2_2_2_2_2_2_2_2_2_2_2_2_2_2_2_2_2_2_2_2_2_2_2

New Line.l(r:p1rdm963-p1rdt410lv) Units=km Length=0.0331708 bus1=p1rdt410lv.1.2 bus2=p1rdm963.1.2 switch=n enabled=y phases=2 Linecode=1P_OH_AL_4/0_Zuzara_0_416_0_2_2_2_2_2_2_2_2_2_2_2_2_2_2_2_2_2_2_2_2_2_2_2_2_2_2_2_2_2

New Line.l(r:p1rdt411lv-p1rlv420) Units=km Length=0.0620582 bus1=p1rdt411lv.1.2 bus2=p1rlv420.1.2 switch=n enabled=y phases=2 Linecode=1P_OH_AL_4/0_Zuzara_0_416_0_2_2_2_2_2_2_2_2_2_2_2_2_2_2_2_2_2_2_2_2_2_2_2_2_2_2_2_2_2

New Line.l(r:p1rdt411lv-p1rlv1372) Units=km Length=0.0177569 bus1=p1rdt411lv.1.2 bus2=p1rlv1372.1.2 switch=n enabled=y phases=2 Linecode=1P_OH_AL_2/0_Rucina_0_416_0_2_2_2_2_2_2_2_2_2_2_2_2_2_2_2_2_2_2_2_2_2_2_2_2_2_2_2_2_2

New Line.l(r:p1rdt411lv-p1rlv9490) Units=km Length=0.0815107 bus1=p1rdt411lv.1.2 bus2=p1rlv9490.1.2 switch=n enabled=y phases=2 Linecode=1P_OH_AL_4/0_Zuzara_0_416_0_2_2_2_2_2_2_2_2_2_2_2_2_2_2_2_2_2_2_2_2_2_2_2_2_2_2_2_2_2

New Line.l(r:p1rdt411lv-p1rlv10854) Units=km Length=0.0679785 bus1=p1rdt411lv.1.2 bus2=p1rlv10854.1.2 switch=n enabled=y phases=2 Linecode=1P_OH_AL_4/0_Zuzara_0_416_0_2_2_2_2_2_2_2_2_2_2_2_2_2_2_2_2_2_2_2_2_2_2_2_2_2_2_2_2_2

New Line.l(r:p1rdt411lv-p1rlv13677) Units=km Length=0.0280222 bus1=p1rdt411lv.1.2 bus2=p1rlv13677.1.2 switch=n enabled=y phases=2 Linecode=1P_OH_AL_4/0_Zuzara_0_416_0_2_2_2_2_2_2_2_2_2_2_2_2_2_2_2_2_2_2_2_2_2_2_2_2_2_2_2_2_2

New Line.l(r:p1rdt412lv-p1rlv421) Units=km Length=0.001 bus1=p1rdt412lv.1.2 bus2=p1rlv421.1.2 switch=n enabled=y phases=2 Linecode=1P_OH_AL_4_Periwinkle_0_416_0_2_2_2_2_2_2_2_2_2_2_2_2_2_2_2_2_2_2_2_2_2_2_2_2_2_2_2_2_2

New Line.l(r:p1rdt413lv-p1rlv422) Units=km Length=0.001 bus1=p1rdt413lv.1.2 bus2=p1rlv422.1.2 switch=n enabled=y phases=2 Linecode=1P_OH_AL_4_Periwinkle_0_416_0_2_2_2_2_2_2_2_2_2_2_2_2_2_2_2_2_2_2_2_2_2_2_2_2_2_2_2_2_2

New Line.l(r:p1rdt414lv-p1rlv423) Units=km Length=0.0557104 bus1=p1rdt414lv.1.2 bus2=p1rlv423.1.2 switch=n enabled=y phases=2 Linecode=1P_OH_AL_4/0_Zuzara_0_416_0_2_2_2_2_2_2_2_2_2_2_2_2_2_2_2_2_2_2_2_2_2_2_2_2_2_2_2_2_2

New Line.l(r:p1rdt414lv-p1rlv687) Units=km Length=0.0598075 bus1=p1rdt414lv.1.2 bus2=p1rlv687.1.2 switch=n enabled=y phases=2 Linecode=1P_OH_AL_4/0_Zuzara_0_416_0_2_2_2_2_2_2_2_2_2_2_2_2_2_2_2_2_2_2_2_2_2_2_2_2_2_2_2_2_2

New Line.l(r:p1rdt414lv-p1rlv8565) Units=km Length=0.0157257 bus1=p1rdt414lv.1.2 bus2=p1rlv8565.1.2 switch=n enabled=y phases=2 Linecode=1P_OH_AL_2/0_Rucina_0_416_0_2_2_2_2_2_2_2_2_2_2_2_2_2_2_2_2_2_2_2_2_2_2_2_2_2_2_2_2_2

New Line.l(r:p1rdt415lv-p1rlv424) Units=km Length=0.0365394 bus1=p1rdt415lv.1.2 bus2=p1rlv424.1.2 switch=n enabled=y phases=2 Linecode=1P_OH_AL_4/0_Zuzara_0_416_0_2_2_2_2_2_2_2_2_2_2_2_2_2_2_2_2_2_2_2_2_2_2_2_2_2_2_2_2_2

New Line.l(r:p1rdt415lv-p1rlv2589) Units=km Length=0.06441900000000002 bus1=p1rdt415lv.1.2 bus2=p1rlv2589.1.2 switch=n enabled=y phases=2 Linecode=1P_OH_AL_4/0_Zuzara_0_416_0_2_2_2_2_2_2_2_2_2_2_2_2_2_2_2_2_2_2_2_2_2_2_2_2_2_2_2_2_2

New Line.l(r:p1rdt415lv-p1rlv3356) Units=km Length=0.00947441 bus1=p1rdt415lv.1.2 bus2=p1rlv3356.1.2 switch=n enabled=y phases=2 Linecode=1P_OH_AL_2/0_Rucina_0_416_0_2_2_2_2_2_2_2_2_2_2_2_2_2_2_2_2_2_2_2_2_2_2_2_2_2_2_2_2_2

New Line.l(r:p1rdt415lv-p1rlv6568) Units=km Length=0.0459917 bus1=p1rdt415lv.1.2 bus2=p1rlv6568.1.2 switch=n enabled=y phases=2 Linecode=1P_OH_AL_4/0_Zuzara_0_416_0_2_2_2_2_2_2_2_2_2_2_2_2_2_2_2_2_2_2_2_2_2_2_2_2_2_2_2_2_2

New Line.l(r:p1rdt415lv-p1rlv10300) Units=km Length=0.0885325 bus1=p1rdt415lv.1.2 bus2=p1rlv10300.1.2 switch=n enabled=y phases=2 Linecode=1P_OH_AL_4/0_Zuzara_0_416_0_2_2_2_2_2_2_2_2_2_2_2_2_2_2_2_2_2_2_2_2_2_2_2_2_2_2_2_2_2

New Line.l(r:p1rdt416lv-p1rlv425) Units=km Length=0.0316791 bus1=p1rdt416lv.1.2 bus2=p1rlv425.1.2 switch=n enabled=y phases=2 Linecode=1P_OH_AL_4/0_Zuzara_0_416_0_2_2_2_2_2_2_2_2_2_2_2_2_2_2_2_2_2_2_2_2_2_2_2_2_2_2_2_2_2

New Line.l(r:p1rdt535lv-p1rlv548) Units=km Length=0.0268731 bus1=p1rdt535lv.1.2 bus2=p1rlv548.1.2 switch=n enabled=y phases=2 Linecode=1P_OH_AL_2/0_Rucina_0_416_0_2_2_2_2_2_2_2_2_2_2_2_2_2_2_2_2_2_2_2_2_2_2_2_2_2_2_2_2_2

New Line.l(r:p1rdt535lv-p1rlv1362) Units=km Length=0.0268731 bus1=p1rdt535lv.1.2 bus2=p1rlv1362.1.2 switch=n enabled=y phases=2 Linecode=1P_OH_AL_2/0_Rucina_0_416_0_2_2_2_2_2_2_2_2_2_2_2_2_2_2_2_2_2_2_2_2_2_2_2_2_2_2_2_2_2

New Line.l(r:p1rdt537lv-p1rlv550) Units=km Length=0.0745893 bus1=p1rdt537lv.1.2 bus2=p1rlv550.1.2 switch=n enabled=y phases=2 Linecode=1P_OH_AL_4/0_Zuzara_0_416_0_2_2_2_2_2_2_2_2_2_2_2_2_2_2_2_2_2_2_2_2_2_2_2_2_2_2_2_2_2

New Line.l(r:p1rdt538lv-p1rlv552) Units=km Length=0.088946 bus1=p1rdt538lv.1.2 bus2=p1rlv552.1.2 switch=n enabled=y phases=2 Linecode=1P_OH_AL_4/0_Zuzara_0_416_0_2_2_2_2_2_2_2_2_2_2_2_2_2_2_2_2_2_2_2_2_2_2_2_2_2_2_2_2_2

New Line.l(r:p1rdt664lv-p1rlv688) Units=km Length=0.0380563 bus1=p1rdt664lv.1.2 bus2=p1rlv688.1.2 switch=n enabled=y phases=2 Linecode=1P_OH_AL_4/0_Zuzara_0_416_0_2_2_2_2_2_2_2_2_2_2_2_2_2_2_2_2_2_2_2_2_2_2_2_2_2_2_2_2_2

New Line.l(r:p1rdt664lv-p1rlv4900) Units=km Length=0.0211327 bus1=p1rdt664lv.1.2 bus2=p1rlv4900.1.2 switch=n enabled=y phases=2 Linecode=1P_OH_AL_2/0_Rucina_0_416_0_2_2_2_2_2_2_2_2_2_2_2_2_2_2_2_2_2_2_2_2_2_2_2_2_2_2_2_2_2

New Line.l(r:p1rdt664lv-p1rlv6447) Units=km Length=0.0567546 bus1=p1rdt664lv.1.2 bus2=p1rlv6447.1.2 switch=n enabled=y phases=2 Linecode=1P_OH_AL_4/0_Zuzara_0_416_0_2_2_2_2_2_2_2_2_2_2_2_2_2_2_2_2_2_2_2_2_2_2_2_2_2_2_2_2_2

New Line.l(r:p1rdt665lv-p1rlv689) Units=km Length=0.0093146 bus1=p1rdt665lv.1.2 bus2=p1rlv689.1.2 switch=n enabled=y phases=2 Linecode=1P_OH_AL_2/0_Rucina_0_416_0_2_2_2_2_2_2_2_2_2_2_2_2_2_2_2_2_2_2_2_2_2_2_2_2_2_2_2_2_2

New Line.l(r:p1rdm1535-p1rlv12772) Units=km Length=0.0015861900000000001 bus1=p1rdm1535.1.2 bus2=p1rlv12772.1.2 switch=n enabled=y phases=2 Linecode=1P_OH_AL_4_Periwinkle_0_416_0_2_2_2_2_2_2_2_2_2_2_2_2_2_2_2_2_2_2_2_2_2_2_2_2_2_2_2_2_2

New Line.l(r:p1rdm1535-p1rdt665lv) Units=km Length=0.019313 bus1=p1rdt665lv.1.2 bus2=p1rdm1535.1.2 switch=n enabled=y phases=2 Linecode=1P_OH_AL_2/0_Rucina_0_416_0_2_2_2_2_2_2_2_2_2_2_2_2_2_2_2_2_2_2_2_2_2_2_2_2_2_2_2_2_2

New Line.l(r:p1rdt666lv-p1rlv690) Units=km Length=0.05354960000000001 bus1=p1rdt666lv.1.2 bus2=p1rlv690.1.2 switch=n enabled=y phases=2 Linecode=1P_OH_AL_4/0_Zuzara_0_416_0_2_2_2_2_2_2_2_2_2_2_2_2_2_2_2_2_2_2_2_2_2_2_2_2_2_2_2_2_2

New Line.l(r:p1rdt666lv-p1rlv12914) Units=km Length=0.05354960000000001 bus1=p1rdt666lv.1.2 bus2=p1rlv12914.1.2 switch=n enabled=y phases=2 Linecode=1P_OH_AL_4/0_Zuzara_0_416_0_2_2_2_2_2_2_2_2_2_2_2_2_2_2_2_2_2_2_2_2_2_2_2_2_2_2_2_2_2

New Line.l(r:p1rdt667lv-p1rlv691) Units=km Length=0.0106962 bus1=p1rdt667lv.1.2 bus2=p1rlv691.1.2 switch=n enabled=y phases=2 Linecode=1P_OH_AL_2/0_Rucina_0_416_0_2_2_2_2_2_2_2_2_2_2_2_2_2_2_2_2_2_2_2_2_2_2_2_2_2_2_2_2_2

New Line.l(r:p1rdt668lv-p1rlv692) Units=km Length=0.001 bus1=p1rdt668lv.1.2 bus2=p1rlv692.1.2 switch=n enabled=y phases=2 Linecode=1P_OH_AL_4_Periwinkle_0_416_0_2_2_2_2_2_2_2_2_2_2_2_2_2_2_2_2_2_2_2_2_2_2_2_2_2_2_2_2_2

New Line.l(r:p1rdm1540-p1rlv693) Units=km Length=0.0170117 bus1=p1rdm1540.1.2 bus2=p1rlv693.1.2 switch=n enabled=y phases=2 Linecode=1P_OH_AL_2/0_Rucina_0_416_0_2_2_2_2_2_2_2_2_2_2_2_2_2_2_2_2_2_2_2_2_2_2_2_2_2_2_2_2_2

New Line.l(r:p1rdm1540-p1rdt669lv) Units=km Length=0.0289755 bus1=p1rdt669lv.1.2 bus2=p1rdm1540.1.2 switch=n enabled=y phases=2 Linecode=1P_OH_AL_4/0_Zuzara_0_416_0_2_2_2_2_2_2_2_2_2_2_2_2_2_2_2_2_2_2_2_2_2_2_2_2_2_2_2_2_2

New Line.l(r:p1rdm1541-p1rlv3515) Units=km Length=0.0662389 bus1=p1rdm1541.1.2 bus2=p1rlv3515.1.2 switch=n enabled=y phases=2 Linecode=1P_OH_AL_4/0_Zuzara_0_416_0_2_2_2_2_2_2_2_2_2_2_2_2_2_2_2_2_2_2_2_2_2_2_2_2_2_2_2_2_2

New Line.l(r:p1rdm1541-p1rdt669lv) Units=km Length=0.0131114 bus1=p1rdt669lv.1.2 bus2=p1rdm1541.1.2 switch=n enabled=y phases=2 Linecode=1P_OH_AL_2/0_Rucina_0_416_0_2_2_2_2_2_2_2_2_2_2_2_2_2_2_2_2_2_2_2_2_2_2_2_2_2_2_2_2_2

New Line.l(r:p1rdt812lv-p1rlv848) Units=km Length=0.001 bus1=p1rdt812lv.1.2 bus2=p1rlv848.1.2 switch=n enabled=y phases=2 Linecode=1P_OH_AL_4_Periwinkle_0_416_0_2_2_2_2_2_2_2_2_2_2_2_2_2_2_2_2_2_2_2_2_2_2_2_2_2_2_2_2_2

New Line.l(r:p1rdt815lv-p1rlv851) Units=km Length=0.063303 bus1=p1rdt815lv.1.2 bus2=p1rlv851.1.2 switch=n enabled=y phases=2 Linecode=1P_OH_AL_4/0_Zuzara_0_416_0_2_2_2_2_2_2_2_2_2_2_2_2_2_2_2_2_2_2_2_2_2_2_2_2_2_2_2_2_2

New Line.l(r:p1rdm1849-p1rlv3510) Units=km Length=0.047506700000000006 bus1=p1rdm1849.1.2 bus2=p1rlv3510.1.2 switch=n enabled=y phases=2 Linecode=1P_OH_AL_4/0_Zuzara_0_416_0_2_2_2_2_2_2_2_2_2_2_2_2_2_2_2_2_2_2_2_2_2_2_2_2_2_2_2_2_2

New Line.l(r:p1rdm1849-p1rdt815lv) Units=km Length=0.0155265 bus1=p1rdt815lv.1.2 bus2=p1rdm1849.1.2 switch=n enabled=y phases=2 Linecode=1P_OH_AL_2/0_Rucina_0_416_0_2_2_2_2_2_2_2_2_2_2_2_2_2_2_2_2_2_2_2_2_2_2_2_2_2_2_2_2_2

New Line.l(r:p1rdt930lv-p1rlv976) Units=km Length=0.0514825 bus1=p1rdt930lv.1.2 bus2=p1rlv976.1.2 switch=n enabled=y phases=2 Linecode=1P_OH_AL_4/0_Zuzara_0_416_0_2_2_2_2_2_2_2_2_2_2_2_2_2_2_2_2_2_2_2_2_2_2_2_2_2_2_2_2_2

New Line.l(r:p1rdt933lv-p1rlv979) Units=km Length=0.0506804 bus1=p1rdt933lv.1.2 bus2=p1rlv979.1.2 switch=n enabled=y phases=2 Linecode=1P_OH_AL_4/0_Zuzara_0_416_0_2_2_2_2_2_2_2_2_2_2_2_2_2_2_2_2_2_2_2_2_2_2_2_2_2_2_2_2_2

New Line.l(r:p1rdt933lv-p1rlv4312) Units=km Length=0.023377 bus1=p1rdt933lv.1.2 bus2=p1rlv4312.1.2 switch=n enabled=y phases=2 Linecode=1P_OH_AL_2/0_Rucina_0_416_0_2_2_2_2_2_2_2_2_2_2_2_2_2_2_2_2_2_2_2_2_2_2_2_2_2_2_2_2_2

New Line.l(r:p1rdt936lv-p1rlv982) Units=km Length=0.0932385 bus1=p1rdt936lv.1.2 bus2=p1rlv982.1.2 switch=n enabled=y phases=2 Linecode=1P_OH_AL_4/0_Zuzara_0_416_0_2_2_2_2_2_2_2_2_2_2_2_2_2_2_2_2_2_2_2_2_2_2_2_2_2_2_2_2_2

New Line.l(r:p1rdm2116-p1rlv1901) Units=km Length=0.065497 bus1=p1rdm2116.1.2 bus2=p1rlv1901.1.2 switch=n enabled=y phases=2 Linecode=1P_OH_AL_4/0_Zuzara_0_416_0_2_2_2_2_2_2_2_2_2_2_2_2_2_2_2_2_2_2_2_2_2_2_2_2_2_2_2_2_2

New Line.l(r:p1rdm2116-p1rdt936lv) Units=km Length=0.0183015 bus1=p1rdt936lv.1.2 bus2=p1rdm2116.1.2 switch=n enabled=y phases=2 Linecode=1P_OH_AL_2/0_Rucina_0_416_0_2_2_2_2_2_2_2_2_2_2_2_2_2_2_2_2_2_2_2_2_2_2_2_2_2_2_2_2_2

New Line.l(r:p1rdm2117-p1rlv9639) Units=km Length=0.0623051 bus1=p1rdm2117.1.2 bus2=p1rlv9639.1.2 switch=n enabled=y phases=2 Linecode=1P_OH_AL_4/0_Zuzara_0_416_0_2_2_2_2_2_2_2_2_2_2_2_2_2_2_2_2_2_2_2_2_2_2_2_2_2_2_2_2_2

New Line.l(r:p1rdm2117-p1rdt936lv) Units=km Length=0.0366028 bus1=p1rdt936lv.1.2 bus2=p1rdm2117.1.2 switch=n enabled=y phases=2 Linecode=1P_OH_AL_4/0_Zuzara_0_416_0_2_2_2_2_2_2_2_2_2_2_2_2_2_2_2_2_2_2_2_2_2_2_2_2_2_2_2_2_2

New Line.l(r:p1rdt937lv-p1rlv983) Units=km Length=0.01358 bus1=p1rdt937lv.1.2 bus2=p1rlv983.1.2 switch=n enabled=y phases=2 Linecode=1P_OH_AL_2/0_Rucina_0_416_0_2_2_2_2_2_2_2_2_2_2_2_2_2_2_2_2_2_2_2_2_2_2_2_2_2_2_2_2_2

New Line.l(r:p1rdt938lv-p1rlv984) Units=km Length=0.026703800000000003 bus1=p1rdt938lv.1.2 bus2=p1rlv984.1.2 switch=n enabled=y phases=2 Linecode=1P_OH_AL_2/0_Rucina_0_416_0_2_2_2_2_2_2_2_2_2_2_2_2_2_2_2_2_2_2_2_2_2_2_2_2_2_2_2_2_2

New Line.l(r:p1rdt1046lv-p1rlv1105) Units=km Length=0.0437203 bus1=p1rdt1046lv.1.2 bus2=p1rlv1105.1.2 switch=n enabled=y phases=2 Linecode=1P_OH_AL_4/0_Zuzara_0_416_0_2_2_2_2_2_2_2_2_2_2_2_2_2_2_2_2_2_2_2_2_2_2_2_2_2_2_2_2_2

New Line.l(r:p1rdt1046lv-p1rlv2175) Units=km Length=0.0437203 bus1=p1rdt1046lv.1.2 bus2=p1rlv2175.1.2 switch=n enabled=y phases=2 Linecode=1P_OH_AL_4/0_Zuzara_0_416_0_2_2_2_2_2_2_2_2_2_2_2_2_2_2_2_2_2_2_2_2_2_2_2_2_2_2_2_2_2

New Line.l(r:p1rdm2346-p1rlv1106) Units=km Length=0.0143952 bus1=p1rdm2346.1.2 bus2=p1rlv1106.1.2 switch=n enabled=y phases=2 Linecode=1P_OH_AL_2/0_Rucina_0_416_0_2_2_2_2_2_2_2_2_2_2_2_2_2_2_2_2_2_2_2_2_2_2_2_2_2_2_2_2_2

New Line.l(r:p1rdm2346-p1rlv10057) Units=km Length=0.0390346 bus1=p1rdm2346.1.2 bus2=p1rlv10057.1.2 switch=n enabled=y phases=2 Linecode=1P_OH_AL_4/0_Zuzara_0_416_0_2_2_2_2_2_2_2_2_2_2_2_2_2_2_2_2_2_2_2_2_2_2_2_2_2_2_2_2_2

New Line.l(r:p1rdm2346-p1rdt1047lv) Units=km Length=0.0202426 bus1=p1rdt1047lv.1.2 bus2=p1rdm2346.1.2 switch=n enabled=y phases=2 Linecode=1P_OH_AL_2/0_Rucina_0_416_0_2_2_2_2_2_2_2_2_2_2_2_2_2_2_2_2_2_2_2_2_2_2_2_2_2_2_2_2_2

New Line.l(r:p1rdm2347-p1rlv2458) Units=km Length=0.0199997 bus1=p1rdm2347.1.2 bus2=p1rlv2458.1.2 switch=n enabled=y phases=2 Linecode=1P_OH_AL_2/0_Rucina_0_416_0_2_2_2_2_2_2_2_2_2_2_2_2_2_2_2_2_2_2_2_2_2_2_2_2_2_2_2_2_2

New Line.l(r:p1rdm2347-p1rdt1047lv) Units=km Length=0.027827300000000003 bus1=p1rdt1047lv.1.2 bus2=p1rdm2347.1.2 switch=n enabled=y phases=2 Linecode=1P_OH_AL_4/0_Zuzara_0_416_0_2_2_2_2_2_2_2_2_2_2_2_2_2_2_2_2_2_2_2_2_2_2_2_2_2_2_2_2_2

New Line.l(r:p1rdt1160lv-p1rlv1228) Units=km Length=0.00779196 bus1=p1rdt1160lv.1.2 bus2=p1rlv1228.1.2 switch=n enabled=y phases=2 Linecode=1P_OH_AL_2/0_Rucina_0_416_0_2_2_2_2_2_2_2_2_2_2_2_2_2_2_2_2_2_2_2_2_2_2_2_2_2_2_2_2_2

New Line.l(r:p1rdt1160lv-p1rlv7517) Units=km Length=0.00779196 bus1=p1rdt1160lv.1.2 bus2=p1rlv7517.1.2 switch=n enabled=y phases=2 Linecode=1P_OH_AL_2/0_Rucina_0_416_0_2_2_2_2_2_2_2_2_2_2_2_2_2_2_2_2_2_2_2_2_2_2_2_2_2_2_2_2_2

New Line.l(r:p1rdt1278lv-p1rlv1363) Units=km Length=0.00669376 bus1=p1rdt1278lv.1.2 bus2=p1rlv1363.1.2 switch=n enabled=y phases=2 Linecode=1P_OH_AL_2/0_Rucina_0_416_0_2_2_2_2_2_2_2_2_2_2_2_2_2_2_2_2_2_2_2_2_2_2_2_2_2_2_2_2_2

New Line.l(r:p1rdt1280lv-p1rlv1365) Units=km Length=0.0388806 bus1=p1rdt1280lv.1.2 bus2=p1rlv1365.1.2 switch=n enabled=y phases=2 Linecode=1P_OH_AL_4/0_Zuzara_0_416_0_2_2_2_2_2_2_2_2_2_2_2_2_2_2_2_2_2_2_2_2_2_2_2_2_2_2_2_2_2

New Line.l(r:p1rdm3087-p1rlv1507) Units=km Length=0.0295878 bus1=p1rdm3087.1.2 bus2=p1rlv1507.1.2 switch=n enabled=y phases=2 Linecode=1P_OH_AL_4/0_Zuzara_0_416_0_2_2_2_2_2_2_2_2_2_2_2_2_2_2_2_2_2_2_2_2_2_2_2_2_2_2_2_2_2

New Line.l(r:p1rdm3087-p1rdt1404lv) Units=km Length=0.0334664 bus1=p1rdt1404lv.1.2 bus2=p1rdm3087.1.2 switch=n enabled=y phases=2 Linecode=1P_OH_AL_4/0_Zuzara_0_416_0_2_2_2_2_2_2_2_2_2_2_2_2_2_2_2_2_2_2_2_2_2_2_2_2_2_2_2_2_2

New Line.l(r:p1rdm3088-p1rlv9347) Units=km Length=0.0242413 bus1=p1rdm3088.1.2 bus2=p1rlv9347.1.2 switch=n enabled=y phases=2 Linecode=1P_OH_AL_2/0_Rucina_0_416_0_2_2_2_2_2_2_2_2_2_2_2_2_2_2_2_2_2_2_2_2_2_2_2_2_2_2_2_2_2

New Line.l(r:p1rdm3088-p1rdt1404lv) Units=km Length=0.0298612 bus1=p1rdt1404lv.1.2 bus2=p1rdm3088.1.2 switch=n enabled=y phases=2 Linecode=1P_OH_AL_4/0_Zuzara_0_416_0_2_2_2_2_2_2_2_2_2_2_2_2_2_2_2_2_2_2_2_2_2_2_2_2_2_2_2_2_2

New Line.l(r:p1rdt1409lv-p1rlv1513) Units=km Length=0.022173 bus1=p1rdt1409lv.1.2 bus2=p1rlv1513.1.2 switch=n enabled=y phases=2 Linecode=1P_OH_AL_2/0_Rucina_0_416_0_2_2_2_2_2_2_2_2_2_2_2_2_2_2_2_2_2_2_2_2_2_2_2_2_2_2_2_2_2

New Line.l(r:p1rdt1409lv-p1rlv9770) Units=km Length=0.0404298 bus1=p1rdt1409lv.1.2 bus2=p1rlv9770.1.2 switch=n enabled=y phases=2 Linecode=1P_OH_AL_4/0_Zuzara_0_416_0_2_2_2_2_2_2_2_2_2_2_2_2_2_2_2_2_2_2_2_2_2_2_2_2_2_2_2_2_2

New Line.l(r:p1rdt1410lv-p1rlv1514) Units=km Length=0.019584 bus1=p1rdt1410lv.1.2 bus2=p1rlv1514.1.2 switch=n enabled=y phases=2 Linecode=1P_OH_AL_2/0_Rucina_0_416_0_2_2_2_2_2_2_2_2_2_2_2_2_2_2_2_2_2_2_2_2_2_2_2_2_2_2_2_2_2

New Line.l(r:p1rdt1410lv-p1rlv9636) Units=km Length=0.019584 bus1=p1rdt1410lv.1.2 bus2=p1rlv9636.1.2 switch=n enabled=y phases=2 Linecode=1P_OH_AL_2/0_Rucina_0_416_0_2_2_2_2_2_2_2_2_2_2_2_2_2_2_2_2_2_2_2_2_2_2_2_2_2_2_2_2_2

New Line.l(r:p1rdt1411lv-p1rlv1515) Units=km Length=0.001 bus1=p1rdt1411lv.1.2 bus2=p1rlv1515.1.2 switch=n enabled=y phases=2 Linecode=1P_OH_AL_4_Periwinkle_0_416_0_2_2_2_2_2_2_2_2_2_2_2_2_2_2_2_2_2_2_2_2_2_2_2_2_2_2_2_2_2

New Line.l(r:p1rdt1412lv-p1rlv1516) Units=km Length=0.001 bus1=p1rdt1412lv.1.2 bus2=p1rlv1516.1.2 switch=n enabled=y phases=2 Linecode=1P_OH_AL_4_Periwinkle_0_416_0_2_2_2_2_2_2_2_2_2_2_2_2_2_2_2_2_2_2_2_2_2_2_2_2_2_2_2_2_2

New Line.l(r:p1rdt1512lv-p1rlv1633) Units=km Length=0.0327431 bus1=p1rdt1512lv.1.2 bus2=p1rlv1633.1.2 switch=n enabled=y phases=2 Linecode=1P_OH_AL_4/0_Zuzara_0_416_0_2_2_2_2_2_2_2_2_2_2_2_2_2_2_2_2_2_2_2_2_2_2_2_2_2_2_2_2_2

New Line.l(r:p1rdt1512lv-p1rlv5685) Units=km Length=0.00433796 bus1=p1rdt1512lv.1.2 bus2=p1rlv5685.1.2 switch=n enabled=y phases=2 Linecode=1P_OH_AL_2/0_Rucina_0_416_0_2_2_2_2_2_2_2_2_2_2_2_2_2_2_2_2_2_2_2_2_2_2_2_2_2_2_2_2_2

New Line.l(r:p1rdt1512lv-p1rlv6833) Units=km Length=0.0310182 bus1=p1rdt1512lv.1.2 bus2=p1rlv6833.1.2 switch=n enabled=y phases=2 Linecode=1P_OH_AL_4/0_Zuzara_0_416_0_2_2_2_2_2_2_2_2_2_2_2_2_2_2_2_2_2_2_2_2_2_2_2_2_2_2_2_2_2

New Line.l(r:p1rdm3318-p1rlv1634) Units=km Length=0.00358422 bus1=p1rdm3318.1.2 bus2=p1rlv1634.1.2 switch=n enabled=y phases=2 Linecode=1P_OH_AL_4_Periwinkle_0_416_0_2_2_2_2_2_2_2_2_2_2_2_2_2_2_2_2_2_2_2_2_2_2_2_2_2_2_2_2_2

New Line.l(r:p1rdm3318-p1rdt1513lv) Units=km Length=0.09213380000000002 bus1=p1rdt1513lv.1.2 bus2=p1rdm3318.1.2 switch=n enabled=y phases=2 Linecode=1P_OH_AL_4/0_Zuzara_0_416_0_2_2_2_2_2_2_2_2_2_2_2_2_2_2_2_2_2_2_2_2_2_2_2_2_2_2_2_2_2

New Line.l(r:p1rdm3319-p1rlv10298) Units=km Length=0.020061100000000002 bus1=p1rdm3319.1.2 bus2=p1rlv10298.1.2 switch=n enabled=y phases=2 Linecode=1P_OH_AL_2/0_Rucina_0_416_0_2_2_2_2_2_2_2_2_2_2_2_2_2_2_2_2_2_2_2_2_2_2_2_2_2_2_2_2_2

New Line.l(r:p1rdm3319-p1rlv13545) Units=km Length=0.0105214 bus1=p1rdm3319.1.2 bus2=p1rlv13545.1.2 switch=n enabled=y phases=2 Linecode=1P_OH_AL_2/0_Rucina_0_416_0_2_2_2_2_2_2_2_2_2_2_2_2_2_2_2_2_2_2_2_2_2_2_2_2_2_2_2_2_2

New Line.l(r:p1rdm3319-p1rdt1513lv) Units=km Length=0.013357600000000002 bus1=p1rdt1513lv.1.2 bus2=p1rdm3319.1.2 switch=n enabled=y phases=2 Linecode=1P_OH_AL_2/0_Rucina_0_416_0_2_2_2_2_2_2_2_2_2_2_2_2_2_2_2_2_2_2_2_2_2_2_2_2_2_2_2_2_2

New Line.l(r:p1rdt1514lv-p1rlv1635) Units=km Length=0.0372914 bus1=p1rdt1514lv.1.2 bus2=p1rlv1635.1.2 switch=n enabled=y phases=2 Linecode=1P_OH_AL_4/0_Zuzara_0_416_0_2_2_2_2_2_2_2_2_2_2_2_2_2_2_2_2_2_2_2_2_2_2_2_2_2_2_2_2_2

New Line.l(r:p1rdt1514lv-p1rlv4470) Units=km Length=0.036495 bus1=p1rdt1514lv.1.2 bus2=p1rlv4470.1.2 switch=n enabled=y phases=2 Linecode=1P_OH_AL_4/0_Zuzara_0_416_0_2_2_2_2_2_2_2_2_2_2_2_2_2_2_2_2_2_2_2_2_2_2_2_2_2_2_2_2_2

New Line.l(r:p1rdt1514lv-p1rlv4899) Units=km Length=0.06036010000000001 bus1=p1rdt1514lv.1.2 bus2=p1rlv4899.1.2 switch=n enabled=y phases=2 Linecode=1P_OH_AL_4/0_Zuzara_0_416_0_2_2_2_2_2_2_2_2_2_2_2_2_2_2_2_2_2_2_2_2_2_2_2_2_2_2_2_2_2
