New Load.load_p1rlv25 conn=wye bus1=p1rlv25.1.2 kV=0.2080002494301389 Vminpu=0.8 Vmaxpu=1.2 model=1 kW=6.73007 kvar=1.370116448815647 Phases=2

New Load.load_p1rlv26 conn=wye bus1=p1rlv26.1.2 kV=0.2080002494301389 Vminpu=0.8 Vmaxpu=1.2 model=1 kW=13.8301 kvar=2.8083215824343424 Phases=2

New Load.load_p1rlv29 conn=wye bus1=p1rlv29.1.2 kV=0.2080002494301389 Vminpu=0.8 Vmaxpu=1.2 model=1 kW=7.200070000000001 kvar=1.4582649236133909 Phases=2

New Load.load_p1rlv30 conn=wye bus1=p1rlv30.1.2 kV=0.2080002494301389 Vminpu=0.8 Vmaxpu=1.2 model=1 kW=8.12008 kvar=1.6488525690409657 Phases=2

New Load.load_p1rlv31 conn=wye bus1=p1rlv31.1.2 kV=0.2080002494301389 Vminpu=0.8 Vmaxpu=1.2 model=1 kW=4.50005 kvar=0.9090541719686612 Phases=2

New Load.load_p1rlv32 conn=wye bus1=p1rlv32.1.2 kV=0.2080002494301389 Vminpu=0.8 Vmaxpu=1.2 model=1 kW=9.9201 kvar=2.009165725991164 Phases=2

New Load.load_p1rlv152 conn=wye bus1=p1rlv152.1.2 kV=0.2080002494301389 Vminpu=0.8 Vmaxpu=1.2 model=1 kW=6.63007 kvar=1.349758318085719 Phases=2

New Load.load_p1rlv154 conn=wye bus1=p1rlv154.1.2 kV=0.2080002494301389 Vminpu=0.8 Vmaxpu=1.2 model=1 kW=8.01008 kvar=1.6307025579717946 Phases=2

New Load.load_p1rlv155 conn=wye bus1=p1rlv155.1.2 kV=0.2080002494301389 Vminpu=0.8 Vmaxpu=1.2 model=1 kW=2.00002 kvar=0.6602093323043688 Phases=2

New Load.load_p1rlv156 conn=wye bus1=p1rlv156.1.2 kV=0.2080002494301389 Vminpu=0.8 Vmaxpu=1.2 model=1 kW=11.430100000000001 kvar=2.3209807969127323 Phases=2

New Load.load_p1rlv157 conn=wye bus1=p1rlv157.1.2.3 kV=0.48 Vminpu=0.8 Vmaxpu=1.2 model=1 kW=35.5804 kvar=7.224908368822127 Phases=3

New Load.load_p1rlv158 conn=wye bus1=p1rlv158.1.2 kV=0.2080002494301389 Vminpu=0.8 Vmaxpu=1.2 model=1 kW=5.53006 kvar=1.1200297390827405 Phases=2

New Load.load_p1rlv291 conn=wye bus1=p1rlv291.1.2 kV=0.2080002494301389 Vminpu=0.8 Vmaxpu=1.2 model=1 kW=5.15005 kvar=1.0511394966246144 Phases=2

New Load.load_p1rlv292 conn=wye bus1=p1rlv292.1.2 kV=0.2080002494301389 Vminpu=0.8 Vmaxpu=1.2 model=1 kW=8.30008 kvar=1.689741137088585 Phases=2

New Load.load_p1rlv293 conn=wye bus1=p1rlv293.1.2 kV=0.2080002494301389 Vminpu=0.8 Vmaxpu=1.2 model=1 kW=7.9600800000000005 kvar=1.6205234926068308 Phases=2

New Load.load_p1rlv297 conn=wye bus1=p1rlv297.1.2 kV=0.2080002494301389 Vminpu=0.8 Vmaxpu=1.2 model=1 kW=3.57004 kvar=0.7305125553603958 Phases=2

New Load.load_p1rlv298 conn=wye bus1=p1rlv298.1.2 kV=0.2080002494301389 Vminpu=0.8 Vmaxpu=1.2 model=1 kW=5.00005 kvar=1.0205240803677447 Phases=2

New Load.load_p1rlv414 conn=wye bus1=p1rlv414.1.2 kV=0.2080002494301389 Vminpu=0.8 Vmaxpu=1.2 model=1 kW=5.15005 kvar=1.0511394966246144 Phases=2

New Load.load_p1rlv417 conn=wye bus1=p1rlv417.1.2 kV=0.2080002494301389 Vminpu=0.8 Vmaxpu=1.2 model=1 kW=8.92009 kvar=1.8113015281347753 Phases=2

New Load.load_p1rlv418 conn=wye bus1=p1rlv418.1.2 kV=0.2080002494301389 Vminpu=0.8 Vmaxpu=1.2 model=1 kW=7.450070000000001 kvar=1.5088986300778207 Phases=2

New Load.load_p1rlv419 conn=wye bus1=p1rlv419.1.2 kV=0.2080002494301389 Vminpu=0.8 Vmaxpu=1.2 model=1 kW=7.46007 kvar=1.5187308031441193 Phases=2

New Load.load_p1rlv420 conn=wye bus1=p1rlv420.1.2 kV=0.2080002494301389 Vminpu=0.8 Vmaxpu=1.2 model=1 kW=1.59002 kvar=0.3203628815171678 Phases=2

New Load.load_p1rlv421 conn=wye bus1=p1rlv421.1.2 kV=0.2080002494301389 Vminpu=0.8 Vmaxpu=1.2 model=1 kW=4.77005 kvar=0.9710930148829175 Phases=2

New Load.load_p1rlv422 conn=wye bus1=p1rlv422.1.2 kV=0.2080002494301389 Vminpu=0.8 Vmaxpu=1.2 model=1 kW=2.5500300000000005 kvar=0.8399627294247528 Phases=2

New Load.load_p1rlv423 conn=wye bus1=p1rlv423.1.2 kV=0.2080002494301389 Vminpu=0.8 Vmaxpu=1.2 model=1 kW=5.01005 kvar=1.019952528634744 Phases=2

New Load.load_p1rlv424 conn=wye bus1=p1rlv424.1.2 kV=0.2080002494301389 Vminpu=0.8 Vmaxpu=1.2 model=1 kW=2.93003 kvar=0.9599314984549403 Phases=2

New Load.load_p1rlv425 conn=wye bus1=p1rlv425.1.2 kV=0.2080002494301389 Vminpu=0.8 Vmaxpu=1.2 model=1 kW=6.15006 kvar=1.2488229464187643 Phases=2

New Load.load_p1rlv548 conn=wye bus1=p1rlv548.1.2 kV=0.2080002494301389 Vminpu=0.8 Vmaxpu=1.2 model=1 kW=4.00004 kvar=0.8101474048239126 Phases=2

New Load.load_p1rlv550 conn=wye bus1=p1rlv550.1.2 kV=0.2080002494301389 Vminpu=0.8 Vmaxpu=1.2 model=1 kW=2.91003 kvar=0.5893824192907394 Phases=2

New Load.load_p1rlv551 conn=wye bus1=p1rlv551.1.2 kV=0.2080002494301389 Vminpu=0.8 Vmaxpu=1.2 model=1 kW=4.87005 kvar=0.9889058302206326 Phases=2

New Load.load_p1rlv552 conn=wye bus1=p1rlv552.1.2 kV=0.2080002494301389 Vminpu=0.8 Vmaxpu=1.2 model=1 kW=7.26007 kvar=1.4704170131648537 Phases=2

New Load.load_p1rlv687 conn=wye bus1=p1rlv687.1.2 kV=0.2080002494301389 Vminpu=0.8 Vmaxpu=1.2 model=1 kW=5.74006 kvar=1.1685689187762893 Phases=2

New Load.load_p1rlv688 conn=wye bus1=p1rlv688.1.2 kV=0.2080002494301389 Vminpu=0.8 Vmaxpu=1.2 model=1 kW=2.49002 kvar=0.8201958390772747 Phases=2

New Load.load_p1rlv689 conn=wye bus1=p1rlv689.1.2 kV=0.2080002494301389 Vminpu=0.8 Vmaxpu=1.2 model=1 kW=4.32004 kvar=0.8794793907851697 Phases=2

New Load.load_p1rlv690 conn=wye bus1=p1rlv690.1.2 kV=0.2080002494301389 Vminpu=0.8 Vmaxpu=1.2 model=1 kW=4.00004 kvar=0.8101474048239126 Phases=2

New Load.load_p1rlv691 conn=wye bus1=p1rlv691.1.2 kV=0.2080002494301389 Vminpu=0.8 Vmaxpu=1.2 model=1 kW=6.22006 kvar=1.2597787689245672 Phases=2

New Load.load_p1rlv692 conn=wye bus1=p1rlv692.1.2 kV=0.2080002494301389 Vminpu=0.8 Vmaxpu=1.2 model=1 kW=3.89004 kvar=1.279974188634463 Phases=2

New Load.load_p1rlv693 conn=wye bus1=p1rlv693.1.2 kV=0.2080002494301389 Vminpu=0.8 Vmaxpu=1.2 model=1 kW=1.58002 kvar=0.32000907555171404 Phases=2

New Load.load_p1rlv848 conn=wye bus1=p1rlv848.1.2 kV=0.2080002494301389 Vminpu=0.8 Vmaxpu=1.2 model=1 kW=5.130050000000001 kvar=1.0390137833913942 Phases=2

New Load.load_p1rlv851 conn=wye bus1=p1rlv851.1.2 kV=0.2080002494301389 Vminpu=0.8 Vmaxpu=1.2 model=1 kW=5.45005 kvar=1.109528303846426 Phases=2

New Load.load_p1rlv976 conn=wye bus1=p1rlv976.1.2 kV=0.2080002494301389 Vminpu=0.8 Vmaxpu=1.2 model=1 kW=2.34002 kvar=0.48003687420401825 Phases=2

New Load.load_p1rlv979 conn=wye bus1=p1rlv979.1.2 kV=0.2080002494301389 Vminpu=0.8 Vmaxpu=1.2 model=1 kW=3.08003 kvar=1.010169305144315 Phases=2

New Load.load_p1rlv982 conn=wye bus1=p1rlv982.1.2 kV=0.2080002494301389 Vminpu=0.8 Vmaxpu=1.2 model=1 kW=5.22005 kvar=1.059976361442534 Phases=2

New Load.load_p1rlv983 conn=wye bus1=p1rlv983.1.2 kV=0.2080002494301389 Vminpu=0.8 Vmaxpu=1.2 model=1 kW=7.53008 kvar=1.529047959266903 Phases=2

New Load.load_p1rlv984 conn=wye bus1=p1rlv984.1.2 kV=0.2080002494301389 Vminpu=0.8 Vmaxpu=1.2 model=1 kW=3.65004 kvar=1.1997101312670575 Phases=2

New Load.load_p1rlv1105 conn=wye bus1=p1rlv1105.1.2 kV=0.2080002494301389 Vminpu=0.8 Vmaxpu=1.2 model=1 kW=1.0500100000000003 kvar=0.34994171004682306 Phases=2

New Load.load_p1rlv1106 conn=wye bus1=p1rlv1106.1.2 kV=0.2080002494301389 Vminpu=0.8 Vmaxpu=1.2 model=1 kW=11.2201 kvar=2.2783384781795917 Phases=2

New Load.load_p1rlv1228 conn=wye bus1=p1rlv1228.1.2 kV=0.2080002494301389 Vminpu=0.8 Vmaxpu=1.2 model=1 kW=5.82006 kvar=1.1787648385814788 Phases=2

New Load.load_p1rlv1362 conn=wye bus1=p1rlv1362.1.2 kV=0.2080002494301389 Vminpu=0.8 Vmaxpu=1.2 model=1 kW=6.81007 kvar=1.37927634152888 Phases=2

New Load.load_p1rlv1363 conn=wye bus1=p1rlv1363.1.2 kV=0.2080002494301389 Vminpu=0.8 Vmaxpu=1.2 model=1 kW=4.79005 kvar=0.9701519425997696 Phases=2

New Load.load_p1rlv1365 conn=wye bus1=p1rlv1365.1.2 kV=0.2080002494301389 Vminpu=0.8 Vmaxpu=1.2 model=1 kW=7.76008 kvar=1.5798072311469755 Phases=2

New Load.load_p1rlv1372 conn=wye bus1=p1rlv1372.1.2 kV=0.2080002494301389 Vminpu=0.8 Vmaxpu=1.2 model=1 kW=6.34006 kvar=1.2907177031558559 Phases=2

New Load.load_p1rlv1507 conn=wye bus1=p1rlv1507.1.2 kV=0.2080002494301389 Vminpu=0.8 Vmaxpu=1.2 model=1 kW=7.34007 kvar=1.4904647831598359 Phases=2

New Load.load_p1rlv1513 conn=wye bus1=p1rlv1513.1.2 kV=0.2080002494301389 Vminpu=0.8 Vmaxpu=1.2 model=1 kW=0.760008 kvar=0.2500721388869269 Phases=2

New Load.load_p1rlv1514 conn=wye bus1=p1rlv1514.1.2 kV=0.2080002494301389 Vminpu=0.8 Vmaxpu=1.2 model=1 kW=3.41003 kvar=1.1196121315639131 Phases=2

New Load.load_p1rlv1515 conn=wye bus1=p1rlv1515.1.2 kV=0.2080002494301389 Vminpu=0.8 Vmaxpu=1.2 model=1 kW=11.4801 kvar=2.331133729944433 Phases=2

New Load.load_p1rlv1516 conn=wye bus1=p1rlv1516.1.2 kV=0.2080002494301389 Vminpu=0.8 Vmaxpu=1.2 model=1 kW=5.420050000000001 kvar=1.1005880935693348 Phases=2

New Load.load_p1rlv1633 conn=wye bus1=p1rlv1633.1.2 kV=0.2080002494301389 Vminpu=0.8 Vmaxpu=1.2 model=1 kW=4.880050000000001 kvar=0.9909364168269728 Phases=2

New Load.load_p1rlv1634 conn=wye bus1=p1rlv1634.1.2 kV=0.2080002494301389 Vminpu=0.8 Vmaxpu=1.2 model=1 kW=4.65005 kvar=0.9393556410179604 Phases=2

New Load.load_p1rlv1635 conn=wye bus1=p1rlv1635.1.2 kV=0.2080002494301389 Vminpu=0.8 Vmaxpu=1.2 model=1 kW=5.03005 kvar=1.0187603008056223 Phases=2

New Load.load_p1rlv1636 conn=wye bus1=p1rlv1636.1.2 kV=0.2080002494301389 Vminpu=0.8 Vmaxpu=1.2 model=1 kW=7.89008 kvar=1.5980159788034758 Phases=2

New Load.load_p1rlv1759 conn=wye bus1=p1rlv1759.1.2 kV=0.2080002494301389 Vminpu=0.8 Vmaxpu=1.2 model=1 kW=7.79008 kvar=1.581843211031744 Phases=2

New Load.load_p1rlv1766 conn=wye bus1=p1rlv1766.1.2 kV=0.2080002494301389 Vminpu=0.8 Vmaxpu=1.2 model=1 kW=16.3702 kvar=3.3241108863107773 Phases=2

New Load.load_p1rlv1767 conn=wye bus1=p1rlv1767.1.2 kV=0.2080002494301389 Vminpu=0.8 Vmaxpu=1.2 model=1 kW=8.91009 kvar=1.8092709415284354 Phases=2

New Load.load_p1rlv1768 conn=wye bus1=p1rlv1768.1.2 kV=0.2080002494301389 Vminpu=0.8 Vmaxpu=1.2 model=1 kW=5.75006 kvar=1.1706047318492825 Phases=2

New Load.load_p1rlv1896 conn=wye bus1=p1rlv1896.1.2 kV=0.2080002494301389 Vminpu=0.8 Vmaxpu=1.2 model=1 kW=4.98005 kvar=1.011242282890373 Phases=2

New Load.load_p1rlv1900 conn=wye bus1=p1rlv1900.1.2 kV=0.2080002494301389 Vminpu=0.8 Vmaxpu=1.2 model=1 kW=4.86005 kvar=0.9894153325398525 Phases=2

New Load.load_p1rlv1901 conn=wye bus1=p1rlv1901.1.2 kV=0.2080002494301389 Vminpu=0.8 Vmaxpu=1.2 model=1 kW=1.58002 kvar=0.32000907555171404 Phases=2

New Load.load_p1rlv2037 conn=wye bus1=p1rlv2037.1.2 kV=0.2080002494301389 Vminpu=0.8 Vmaxpu=1.2 model=1 kW=5.54006 kvar=1.1307416199202263 Phases=2

New Load.load_p1rlv2039 conn=wye bus1=p1rlv2039.1.2 kV=0.2080002494301389 Vminpu=0.8 Vmaxpu=1.2 model=1 kW=4.10004 kvar=1.3505255974049963 Phases=2

New Load.load_p1rlv2040 conn=wye bus1=p1rlv2040.1.2 kV=0.2080002494301389 Vminpu=0.8 Vmaxpu=1.2 model=1 kW=1.19001 kvar=0.3898690738580709 Phases=2

New Load.load_p1rlv2166 conn=wye bus1=p1rlv2166.1.2 kV=0.2080002494301389 Vminpu=0.8 Vmaxpu=1.2 model=1 kW=5.890060000000001 kvar=1.199106114871181 Phases=2

New Load.load_p1rlv2170 conn=wye bus1=p1rlv2170.1.2 kV=0.2080002494301389 Vminpu=0.8 Vmaxpu=1.2 model=1 kW=7.85008 kvar=1.5899145857691672 Phases=2

New Load.load_p1rlv2172 conn=wye bus1=p1rlv2172.1.2 kV=0.2080002494301389 Vminpu=0.8 Vmaxpu=1.2 model=1 kW=7.12007 kvar=1.449513158662365 Phases=2

New Load.load_p1rlv2175 conn=wye bus1=p1rlv2175.1.2 kV=0.2080002494301389 Vminpu=0.8 Vmaxpu=1.2 model=1 kW=3.33003 kvar=1.100425094899495 Phases=2

New Load.load_p1rlv2317 conn=wye bus1=p1rlv2317.1.2 kV=0.2080002494301389 Vminpu=0.8 Vmaxpu=1.2 model=1 kW=4.87005 kvar=0.9889058302206326 Phases=2

New Load.load_p1rlv2321 conn=wye bus1=p1rlv2321.1.2 kV=0.2080002494301389 Vminpu=0.8 Vmaxpu=1.2 model=1 kW=7.62008 kvar=1.5513058481250768 Phases=2

New Load.load_p1rlv2323 conn=wye bus1=p1rlv2323.1.2.3 kV=0.48 Vminpu=0.8 Vmaxpu=1.2 model=1 kW=25.210300000000004 kvar=8.277275484487152 Phases=3

New Load.load_p1rlv2326 conn=wye bus1=p1rlv2326.1.2 kV=0.2080002494301389 Vminpu=0.8 Vmaxpu=1.2 model=1 kW=2.02002 kvar=0.6696656108742433 Phases=2

New Load.load_p1rlv2453 conn=wye bus1=p1rlv2453.1.2 kV=0.2080002494301389 Vminpu=0.8 Vmaxpu=1.2 model=1 kW=5.67006 kvar=1.1513547893144422 Phases=2

New Load.load_p1rlv2455 conn=wye bus1=p1rlv2455.1.2 kV=0.2080002494301389 Vminpu=0.8 Vmaxpu=1.2 model=1 kW=18.4202 kvar=3.740381140610486 Phases=2

New Load.load_p1rlv2456 conn=wye bus1=p1rlv2456.1.2 kV=0.2080002494301389 Vminpu=0.8 Vmaxpu=1.2 model=1 kW=5.28005 kvar=1.7392129541609966 Phases=2

New Load.load_p1rlv2457 conn=wye bus1=p1rlv2457.1.2 kV=0.2080002494301389 Vminpu=0.8 Vmaxpu=1.2 model=1 kW=4.85005 kvar=0.9797575997503596 Phases=2

New Load.load_p1rlv2458 conn=wye bus1=p1rlv2458.1.2 kV=0.2080002494301389 Vminpu=0.8 Vmaxpu=1.2 model=1 kW=5.27005 kvar=1.0701292944742342 Phases=2

New Load.load_p1rlv2459 conn=wye bus1=p1rlv2459.1.2 kV=0.2080002494301389 Vminpu=0.8 Vmaxpu=1.2 model=1 kW=7.39007 kvar=1.5006177161915362 Phases=2

New Load.load_p1rlv2460 conn=wye bus1=p1rlv2460.1.2 kV=0.2080002494301389 Vminpu=0.8 Vmaxpu=1.2 model=1 kW=2.5100300000000004 kvar=0.8196504594624435 Phases=2

New Load.load_p1rlv2589 conn=wye bus1=p1rlv2589.1.2 kV=0.2080002494301389 Vminpu=0.8 Vmaxpu=1.2 model=1 kW=5.090050000000001 kvar=1.0309123903570856 Phases=2

New Load.load_p1rlv2721 conn=wye bus1=p1rlv2721.1.2 kV=0.2080002494301389 Vminpu=0.8 Vmaxpu=1.2 model=1 kW=3.00003 kvar=0.6107500293370508 Phases=2

New Load.load_p1rlv2722 conn=wye bus1=p1rlv2722.1.2 kV=0.2080002494301389 Vminpu=0.8 Vmaxpu=1.2 model=1 kW=4.70005 kvar=0.9494561307010603 Phases=2

New Load.load_p1rlv2863 conn=wye bus1=p1rlv2863.1.2 kV=0.2080002494301389 Vminpu=0.8 Vmaxpu=1.2 model=1 kW=5.07005 kvar=1.0295175623474335 Phases=2

New Load.load_p1rlv2864 conn=wye bus1=p1rlv2864.1.2 kV=0.2080002494301389 Vminpu=0.8 Vmaxpu=1.2 model=1 kW=5.39005 kvar=1.1001241626356058 Phases=2

New Load.load_p1rlv2866 conn=wye bus1=p1rlv2866.1.2 kV=0.2080002494301389 Vminpu=0.8 Vmaxpu=1.2 model=1 kW=5.640060000000001 kvar=1.1393473568412724 Phases=2

New Load.load_p1rlv2979 conn=wye bus1=p1rlv2979.1.2 kV=0.2080002494301389 Vminpu=0.8 Vmaxpu=1.2 model=1 kW=4.99005 kvar=1.0106589077713133 Phases=2

New Load.load_p1rlv2980 conn=wye bus1=p1rlv2980.1.2 kV=0.2080002494301389 Vminpu=0.8 Vmaxpu=1.2 model=1 kW=2.02002 kvar=0.6696656108742433 Phases=2

New Load.load_p1rlv2981 conn=wye bus1=p1rlv2981.1.2 kV=0.2080002494301389 Vminpu=0.8 Vmaxpu=1.2 model=1 kW=5.55006 kvar=1.1298884703894267 Phases=2

New Load.load_p1rlv2982 conn=wye bus1=p1rlv2982.1.2 kV=0.2080002494301389 Vminpu=0.8 Vmaxpu=1.2 model=1 kW=5.090050000000001 kvar=1.0309123903570856 Phases=2

New Load.load_p1rlv3103 conn=wye bus1=p1rlv3103.1.2 kV=0.2080002494301389 Vminpu=0.8 Vmaxpu=1.2 model=1 kW=9.5201 kvar=1.9281517956480756 Phases=2

New Load.load_p1rlv3106 conn=wye bus1=p1rlv3106.1.2 kV=0.2080002494301389 Vminpu=0.8 Vmaxpu=1.2 model=1 kW=4.60005 kvar=0.9292551513348608 Phases=2

New Load.load_p1rlv3107 conn=wye bus1=p1rlv3107.1.2 kV=0.2080002494301389 Vminpu=0.8 Vmaxpu=1.2 model=1 kW=6.83007 kvar=1.3904745795455744 Phases=2

New Load.load_p1rlv3108 conn=wye bus1=p1rlv3108.1.2 kV=0.2080002494301389 Vminpu=0.8 Vmaxpu=1.2 model=1 kW=5.79006 kvar=1.1787479841412536 Phases=2

New Load.load_p1rlv3109 conn=wye bus1=p1rlv3109.1.2 kV=0.2080002494301389 Vminpu=0.8 Vmaxpu=1.2 model=1 kW=5.61006 kvar=1.839952991372784 Phases=2

New Load.load_p1rlv3226 conn=wye bus1=p1rlv3226.1.2 kV=0.2080002494301389 Vminpu=0.8 Vmaxpu=1.2 model=1 kW=12.3101 kvar=4.050500832770127 Phases=2

New Load.load_p1rlv3231 conn=wye bus1=p1rlv3231.1.2 kV=0.2080002494301389 Vminpu=0.8 Vmaxpu=1.2 model=1 kW=6.98007 kvar=1.4210117756404663 Phases=2

New Load.load_p1rlv3232 conn=wye bus1=p1rlv3232.1.2 kV=0.2080002494301389 Vminpu=0.8 Vmaxpu=1.2 model=1 kW=5.91006 kvar=1.200088867866603 Phases=2

New Load.load_p1rlv3233 conn=wye bus1=p1rlv3233.1.2 kV=0.2080002494301389 Vminpu=0.8 Vmaxpu=1.2 model=1 kW=5.130050000000001 kvar=1.0390137833913942 Phases=2

New Load.load_p1rlv3352 conn=wye bus1=p1rlv3352.1.2 kV=0.2080002494301389 Vminpu=0.8 Vmaxpu=1.2 model=1 kW=7.42007 kvar=1.510587550852148 Phases=2

New Load.load_p1rlv3354 conn=wye bus1=p1rlv3354.1.2 kV=0.2080002494301389 Vminpu=0.8 Vmaxpu=1.2 model=1 kW=6.05006 kvar=1.2285170803553642 Phases=2

New Load.load_p1rlv3355 conn=wye bus1=p1rlv3355.1.2 kV=0.2080002494301389 Vminpu=0.8 Vmaxpu=1.2 model=1 kW=6.77007 kvar=1.378259701107618 Phases=2

New Load.load_p1rlv3356 conn=wye bus1=p1rlv3356.1.2 kV=0.2080002494301389 Vminpu=0.8 Vmaxpu=1.2 model=1 kW=0.580006 kvar=0.1900205897867449 Phases=2

New Load.load_p1rlv3357 conn=wye bus1=p1rlv3357.1.2 kV=0.2080002494301389 Vminpu=0.8 Vmaxpu=1.2 model=1 kW=4.94005 kvar=1.0005321664784275 Phases=2

New Load.load_p1rlv3358 conn=wye bus1=p1rlv3358.1.2 kV=0.2080002494301389 Vminpu=0.8 Vmaxpu=1.2 model=1 kW=6.28006 kvar=1.2785028247178991 Phases=2

New Load.load_p1rlv3359 conn=wye bus1=p1rlv3359.1.2 kV=0.2080002494301389 Vminpu=0.8 Vmaxpu=1.2 model=1 kW=7.53008 kvar=2.480357701512038 Phases=2

New Load.load_p1rlv3503 conn=wye bus1=p1rlv3503.1.2 kV=0.2080002494301389 Vminpu=0.8 Vmaxpu=1.2 model=1 kW=2.63003 kvar=0.8597737036090425 Phases=2

New Load.load_p1rlv3508 conn=wye bus1=p1rlv3508.1.2 kV=0.2080002494301389 Vminpu=0.8 Vmaxpu=1.2 model=1 kW=2.83003 kvar=0.930185878179338 Phases=2

New Load.load_p1rlv3510 conn=wye bus1=p1rlv3510.1.2 kV=0.2080002494301389 Vminpu=0.8 Vmaxpu=1.2 model=1 kW=4.670050000000001 kvar=0.9507348841529898 Phases=2

New Load.load_p1rlv3511 conn=wye bus1=p1rlv3511.1.2 kV=0.2080002494301389 Vminpu=0.8 Vmaxpu=1.2 model=1 kW=5.95006 kvar=1.2113209933091376 Phases=2

New Load.load_p1rlv3512 conn=wye bus1=p1rlv3512.1.2 kV=0.2080002494301389 Vminpu=0.8 Vmaxpu=1.2 model=1 kW=9.02009 kvar=1.8316073941981759 Phases=2

New Load.load_p1rlv3513 conn=wye bus1=p1rlv3513.1.2 kV=0.2080002494301389 Vminpu=0.8 Vmaxpu=1.2 model=1 kW=7.78008 kvar=1.579812624425404 Phases=2

New Load.load_p1rlv3514 conn=wye bus1=p1rlv3514.1.2 kV=0.2080002494301389 Vminpu=0.8 Vmaxpu=1.2 model=1 kW=8.08008 kvar=1.6407302226156055 Phases=2

New Load.load_p1rlv3515 conn=wye bus1=p1rlv3515.1.2 kV=0.2080002494301389 Vminpu=0.8 Vmaxpu=1.2 model=1 kW=5.130050000000001 kvar=1.0390137833913942 Phases=2

New Load.load_p1rlv3654 conn=wye bus1=p1rlv3654.1.2 kV=0.2080002494301389 Vminpu=0.8 Vmaxpu=1.2 model=1 kW=8.39008 kvar=1.6992833917323356 Phases=2

New Load.load_p1rlv3798 conn=wye bus1=p1rlv3798.1.2 kV=0.2080002494301389 Vminpu=0.8 Vmaxpu=1.2 model=1 kW=5.51006 kvar=1.1188654036130017 Phases=2

New Load.load_p1rlv3904 conn=wye bus1=p1rlv3904.1.2 kV=0.2080002494301389 Vminpu=0.8 Vmaxpu=1.2 model=1 kW=9.8301 kvar=2.0012246088826253 Phases=2

New Load.load_p1rlv3906 conn=wye bus1=p1rlv3906.1.2 kV=0.2080002494301389 Vminpu=0.8 Vmaxpu=1.2 model=1 kW=10.2501 kvar=2.081371577364607 Phases=2

New Load.load_p1rlv3907 conn=wye bus1=p1rlv3907.1.2 kV=0.2080002494301389 Vminpu=0.8 Vmaxpu=1.2 model=1 kW=5.76006 kvar=1.1696300687715029 Phases=2

New Load.load_p1rlv3908 conn=wye bus1=p1rlv3908.1.2 kV=0.2080002494301389 Vminpu=0.8 Vmaxpu=1.2 model=1 kW=5.29005 kvar=1.0686419089616372 Phases=2

New Load.load_p1rlv3909 conn=wye bus1=p1rlv3909.1.2 kV=0.2080002494301389 Vminpu=0.8 Vmaxpu=1.2 model=1 kW=2.52003 kvar=0.510393837206229 Phases=2

New Load.load_p1rlv3910 conn=wye bus1=p1rlv3910.1.2 kV=0.2080002494301389 Vminpu=0.8 Vmaxpu=1.2 model=1 kW=6.11006 kvar=1.2407005999934042 Phases=2

New Load.load_p1rlv4034 conn=wye bus1=p1rlv4034.1.2 kV=0.2080002494301389 Vminpu=0.8 Vmaxpu=1.2 model=1 kW=1.9700200000000003 kvar=0.4000296226222012 Phases=2

New Load.load_p1rlv4035 conn=wye bus1=p1rlv4035.1.2 kV=0.2080002494301389 Vminpu=0.8 Vmaxpu=1.2 model=1 kW=5.810060000000001 kvar=1.1797830018032032 Phases=2

New Load.load_p1rlv4038 conn=wye bus1=p1rlv4038.1.2 kV=0.2080002494301389 Vminpu=0.8 Vmaxpu=1.2 model=1 kW=5.05005 kvar=1.0307292191200343 Phases=2

New Load.load_p1rlv4039 conn=wye bus1=p1rlv4039.1.2 kV=0.2080002494301389 Vminpu=0.8 Vmaxpu=1.2 model=1 kW=9.13009 kvar=1.849161188215306 Phases=2

New Load.load_p1rlv4040 conn=wye bus1=p1rlv4040.1.2 kV=0.2080002494301389 Vminpu=0.8 Vmaxpu=1.2 model=1 kW=6.62007 kvar=1.3407947246159133 Phases=2

New Load.load_p1rlv4171 conn=wye bus1=p1rlv4171.1.2 kV=0.2080002494301389 Vminpu=0.8 Vmaxpu=1.2 model=1 kW=2.86003 kvar=0.5807538611730713 Phases=2

New Load.load_p1rlv4173 conn=wye bus1=p1rlv4173.1.2 kV=0.2080002494301389 Vminpu=0.8 Vmaxpu=1.2 model=1 kW=5.14005 kvar=1.0410391316499712 Phases=2

New Load.load_p1rlv4174 conn=wye bus1=p1rlv4174.1.2 kV=0.2080002494301389 Vminpu=0.8 Vmaxpu=1.2 model=1 kW=3.27003 kvar=0.660578085568534 Phases=2

New Load.load_p1rlv4175 conn=wye bus1=p1rlv4175.1.2 kV=0.2080002494301389 Vminpu=0.8 Vmaxpu=1.2 model=1 kW=5.07005 kvar=1.0295175623474335 Phases=2

New Load.load_p1rlv4307 conn=wye bus1=p1rlv4307.1.2 kV=0.2080002494301389 Vminpu=0.8 Vmaxpu=1.2 model=1 kW=6.56007 kvar=1.3286426350644502 Phases=2

New Load.load_p1rlv4311 conn=wye bus1=p1rlv4311.1.2.3 kV=0.48 Vminpu=0.8 Vmaxpu=1.2 model=1 kW=43.7004 kvar=14.363626869958393 Phases=3

New Load.load_p1rlv4312 conn=wye bus1=p1rlv4312.1.2 kV=0.2080002494301389 Vminpu=0.8 Vmaxpu=1.2 model=1 kW=8.68009 kvar=2.849926266650618 Phases=2

New Load.load_p1rlv4315 conn=wye bus1=p1rlv4315.1.2 kV=0.2080002494301389 Vminpu=0.8 Vmaxpu=1.2 model=1 kW=6.73007 kvar=1.370116448815647 Phases=2

New Load.load_p1rlv4316 conn=wye bus1=p1rlv4316.1.2 kV=0.2080002494301389 Vminpu=0.8 Vmaxpu=1.2 model=1 kW=5.18005 kvar=1.0491405246842802 Phases=2

New Load.load_p1rlv4469 conn=wye bus1=p1rlv4469.1.2 kV=0.2080002494301389 Vminpu=0.8 Vmaxpu=1.2 model=1 kW=5.32005 kvar=1.7505029979755415 Phases=2

New Load.load_p1rlv4470 conn=wye bus1=p1rlv4470.1.2 kV=0.2080002494301389 Vminpu=0.8 Vmaxpu=1.2 model=1 kW=6.62007 kvar=1.3407947246159133 Phases=2

New Load.load_p1rlv4471 conn=wye bus1=p1rlv4471.1.2 kV=0.2080002494301389 Vminpu=0.8 Vmaxpu=1.2 model=1 kW=8.39008 kvar=1.6992833917323356 Phases=2

New Load.load_p1rlv4472 conn=wye bus1=p1rlv4472.1.2 kV=0.2080002494301389 Vminpu=0.8 Vmaxpu=1.2 model=1 kW=5.47005 kvar=1.110741026601035 Phases=2

New Load.load_p1rlv4473 conn=wye bus1=p1rlv4473.1.2 kV=0.2080002494301389 Vminpu=0.8 Vmaxpu=1.2 model=1 kW=5.67006 kvar=1.1513547893144422 Phases=2

New Load.load_p1rlv4474 conn=wye bus1=p1rlv4474.1.2 kV=0.2080002494301389 Vminpu=0.8 Vmaxpu=1.2 model=1 kW=2.88003 kvar=0.5893205887930111 Phases=2

New Load.load_p1rlv4475 conn=wye bus1=p1rlv4475.1.2 kV=0.2080002494301389 Vminpu=0.8 Vmaxpu=1.2 model=1 kW=4.29004 kvar=0.8711297764663039 Phases=2

New Load.load_p1rlv4476 conn=wye bus1=p1rlv4476.1.2 kV=0.2080002494301389 Vminpu=0.8 Vmaxpu=1.2 model=1 kW=4.98005 kvar=1.011242282890373 Phases=2

New Load.load_p1rlv4602 conn=wye bus1=p1rlv4602.1.2 kV=0.2080002494301389 Vminpu=0.8 Vmaxpu=1.2 model=1 kW=6.66007 kvar=2.189059148378591 Phases=2

New Load.load_p1rlv4605 conn=wye bus1=p1rlv4605.1.2 kV=0.2080002494301389 Vminpu=0.8 Vmaxpu=1.2 model=1 kW=8.36008 kvar=1.7019560155265416 Phases=2

New Load.load_p1rlv4609 conn=wye bus1=p1rlv4609.1.2 kV=0.2080002494301389 Vminpu=0.8 Vmaxpu=1.2 model=1 kW=8.06008 kvar=1.6408816233367585 Phases=2

New Load.load_p1rlv4746 conn=wye bus1=p1rlv4746.1.2 kV=0.2080002494301389 Vminpu=0.8 Vmaxpu=1.2 model=1 kW=6.950070000000001 kvar=1.4112719055125744 Phases=2

New Load.load_p1rlv4891 conn=wye bus1=p1rlv4891.1.2 kV=0.2080002494301389 Vminpu=0.8 Vmaxpu=1.2 model=1 kW=6.07006 kvar=1.2293985450459088 Phases=2

New Load.load_p1rlv4893 conn=wye bus1=p1rlv4893.1.2 kV=0.2080002494301389 Vminpu=0.8 Vmaxpu=1.2 model=1 kW=6.58007 kvar=1.3395792527207553 Phases=2

New Load.load_p1rlv4899 conn=wye bus1=p1rlv4899.1.2 kV=0.2080002494301389 Vminpu=0.8 Vmaxpu=1.2 model=1 kW=0.43000400000000005 kvar=0.13995741049759522 Phases=2

New Load.load_p1rlv4900 conn=wye bus1=p1rlv4900.1.2 kV=0.2080002494301389 Vminpu=0.8 Vmaxpu=1.2 model=1 kW=0.850009 kvar=0.279987247081644 Phases=2

New Load.load_p1rlv4901 conn=wye bus1=p1rlv4901.1.2 kV=0.2080002494301389 Vminpu=0.8 Vmaxpu=1.2 model=1 kW=5.14005 kvar=1.0410391316499712 Phases=2

New Load.load_p1rlv5024 conn=wye bus1=p1rlv5024.1.2 kV=0.2080002494301389 Vminpu=0.8 Vmaxpu=1.2 model=1 kW=0.18000200000000002 kvar=0.05999010265792538 Phases=2

New Load.load_p1rlv5025 conn=wye bus1=p1rlv5025.1.2 kV=0.2080002494301389 Vminpu=0.8 Vmaxpu=1.2 model=1 kW=6.48006 kvar=1.3192190861777544 Phases=2

New Load.load_p1rlv5026 conn=wye bus1=p1rlv5026.1.2 kV=0.2080002494301389 Vminpu=0.8 Vmaxpu=1.2 model=1 kW=7.39007 kvar=1.5006177161915362 Phases=2

New Load.load_p1rlv5145 conn=wye bus1=p1rlv5145.1.2 kV=0.2080002494301389 Vminpu=0.8 Vmaxpu=1.2 model=1 kW=3.33003 kvar=0.6796683639857601 Phases=2

New Load.load_p1rlv5148 conn=wye bus1=p1rlv5148.1.2 kV=0.2080002494301389 Vminpu=0.8 Vmaxpu=1.2 model=1 kW=2.13002 kvar=0.700103717713082 Phases=2

New Load.load_p1rlv5149 conn=wye bus1=p1rlv5149.1.2.3 kV=0.48 Vminpu=0.8 Vmaxpu=1.2 model=1 kW=33.5103 kvar=11.01430296977526 Phases=3

New Load.load_p1rlv5268 conn=wye bus1=p1rlv5268.1.2 kV=0.2080002494301389 Vminpu=0.8 Vmaxpu=1.2 model=1 kW=5.41005 kvar=1.101385051554455 Phases=2

New Load.load_p1rlv5272 conn=wye bus1=p1rlv5272.1.2 kV=0.2080002494301389 Vminpu=0.8 Vmaxpu=1.2 model=1 kW=3.15003 kvar=0.6396408727569326 Phases=2

New Load.load_p1rlv5412 conn=wye bus1=p1rlv5412.1.2 kV=0.2080002494301389 Vminpu=0.8 Vmaxpu=1.2 model=1 kW=13.2501 kvar=4.350393604875912 Phases=2

New Load.load_p1rlv5414 conn=wye bus1=p1rlv5414.1.2 kV=0.2080002494301389 Vminpu=0.8 Vmaxpu=1.2 model=1 kW=6.81007 kvar=1.37927634152888 Phases=2

New Load.load_p1rlv5415 conn=wye bus1=p1rlv5415.1.2 kV=0.2080002494301389 Vminpu=0.8 Vmaxpu=1.2 model=1 kW=5.87006 kvar=1.1888915798743651 Phases=2

New Load.load_p1rlv5541 conn=wye bus1=p1rlv5541.1.2 kV=0.2080002494301389 Vminpu=0.8 Vmaxpu=1.2 model=1 kW=13.9801 kvar=4.599995669589171 Phases=2

New Load.load_p1rlv5685 conn=wye bus1=p1rlv5685.1.2 kV=0.2080002494301389 Vminpu=0.8 Vmaxpu=1.2 model=1 kW=5.91006 kvar=1.200088867866603 Phases=2

New Load.load_p1rlv5686 conn=wye bus1=p1rlv5686.1.2 kV=0.2080002494301389 Vminpu=0.8 Vmaxpu=1.2 model=1 kW=3.62004 kvar=1.1898496081116918 Phases=2

New Load.load_p1rlv5687 conn=wye bus1=p1rlv5687.1.2 kV=0.2080002494301389 Vminpu=0.8 Vmaxpu=1.2 model=1 kW=6.32006 kvar=1.2800322515103388 Phases=2

New Load.load_p1rlv5690 conn=wye bus1=p1rlv5690.1.2 kV=0.2080002494301389 Vminpu=0.8 Vmaxpu=1.2 model=1 kW=7.98008 kvar=1.6204243565522047 Phases=2

New Load.load_p1rlv5691 conn=wye bus1=p1rlv5691.1.2 kV=0.2080002494301389 Vminpu=0.8 Vmaxpu=1.2 model=1 kW=4.36004 kvar=1.4299791161779005 Phases=2

New Load.load_p1rlv5692 conn=wye bus1=p1rlv5692.1.2 kV=0.2080002494301389 Vminpu=0.8 Vmaxpu=1.2 model=1 kW=10.3201 kvar=2.1009794494592713 Phases=2

New Load.load_p1rlv5693 conn=wye bus1=p1rlv5693.1.2 kV=0.2080002494301389 Vminpu=0.8 Vmaxpu=1.2 model=1 kW=0.910009 kvar=0.30007315041800386 Phases=2

New Load.load_p1rlv5812 conn=wye bus1=p1rlv5812.1.2 kV=0.2080002494301389 Vminpu=0.8 Vmaxpu=1.2 model=1 kW=2.42002 kvar=0.7902576881185892 Phases=2

New Load.load_p1rlv5935 conn=wye bus1=p1rlv5935.1.2 kV=0.2080002494301389 Vminpu=0.8 Vmaxpu=1.2 model=1 kW=1.3200100000000001 kvar=0.27010450252693985 Phases=2

New Load.load_p1rlv5936 conn=wye bus1=p1rlv5936.1.2 kV=0.2080002494301389 Vminpu=0.8 Vmaxpu=1.2 model=1 kW=6.90007 kvar=1.4011189724808741 Phases=2

New Load.load_p1rlv5937 conn=wye bus1=p1rlv5937.1.2 kV=0.2080002494301389 Vminpu=0.8 Vmaxpu=1.2 model=1 kW=6.64007 kvar=1.3483237207160328 Phases=2

New Load.load_p1rlv5938 conn=wye bus1=p1rlv5938.1.2 kV=0.2080002494301389 Vminpu=0.8 Vmaxpu=1.2 model=1 kW=6.85007 kvar=1.3909660394491736 Phases=2

New Load.load_p1rlv5943 conn=wye bus1=p1rlv5943.1.2 kV=0.2080002494301389 Vminpu=0.8 Vmaxpu=1.2 model=1 kW=11.2201 kvar=2.2783384781795917 Phases=2

New Load.load_p1rlv5945 conn=wye bus1=p1rlv5945.1.2 kV=0.2080002494301389 Vminpu=0.8 Vmaxpu=1.2 model=1 kW=7.57008 kvar=1.5411267827601127 Phases=2

New Load.load_p1rlv5946 conn=wye bus1=p1rlv5946.1.2 kV=0.2080002494301389 Vminpu=0.8 Vmaxpu=1.2 model=1 kW=9.040090000000001 kvar=1.8403933403031236 Phases=2

New Load.load_p1rlv6081 conn=wye bus1=p1rlv6081.1.2 kV=0.2080002494301389 Vminpu=0.8 Vmaxpu=1.2 model=1 kW=4.86005 kvar=0.9894153325398525 Phases=2

New Load.load_p1rlv6200 conn=wye bus1=p1rlv6200.1.2 kV=0.2080002494301389 Vminpu=0.8 Vmaxpu=1.2 model=1 kW=5.770060000000001 kvar=1.1686380972885935 Phases=2

New Load.load_p1rlv6324 conn=wye bus1=p1rlv6324.1.2 kV=0.2080002494301389 Vminpu=0.8 Vmaxpu=1.2 model=1 kW=7.630080000000001 kvar=1.5493538253303036 Phases=2

New Load.load_p1rlv6325 conn=wye bus1=p1rlv6325.1.2.3 kV=0.48 Vminpu=0.8 Vmaxpu=1.2 model=1 kW=45.0005 kvar=9.13774125786051 Phases=3

New Load.load_p1rlv6330 conn=wye bus1=p1rlv6330.1.2 kV=0.2080002494301389 Vminpu=0.8 Vmaxpu=1.2 model=1 kW=7.39007 kvar=1.5006177161915362 Phases=2

New Load.load_p1rlv6331 conn=wye bus1=p1rlv6331.1.2 kV=0.2080002494301389 Vminpu=0.8 Vmaxpu=1.2 model=1 kW=5.99006 kvar=1.2194642456011087 Phases=2

New Load.load_p1rlv6332 conn=wye bus1=p1rlv6332.1.2 kV=0.2080002494301389 Vminpu=0.8 Vmaxpu=1.2 model=1 kW=5.28005 kvar=1.069394007270052 Phases=2

New Load.load_p1rlv6441 conn=wye bus1=p1rlv6441.1.2 kV=0.2080002494301389 Vminpu=0.8 Vmaxpu=1.2 model=1 kW=5.770060000000001 kvar=1.1686380972885935 Phases=2

New Load.load_p1rlv6447 conn=wye bus1=p1rlv6447.1.2 kV=0.2080002494301389 Vminpu=0.8 Vmaxpu=1.2 model=1 kW=6.61007 kvar=1.3387693763573363 Phases=2

New Load.load_p1rlv6448 conn=wye bus1=p1rlv6448.1.2 kV=0.2080002494301389 Vminpu=0.8 Vmaxpu=1.2 model=1 kW=7.11007 kvar=1.4400367892861963 Phases=2

New Load.load_p1rlv6449 conn=wye bus1=p1rlv6449.1.2 kV=0.2080002494301389 Vminpu=0.8 Vmaxpu=1.2 model=1 kW=8.700090000000001 kvar=1.771175695821369 Phases=2

New Load.load_p1rlv6564 conn=wye bus1=p1rlv6564.1.2 kV=0.2080002494301389 Vminpu=0.8 Vmaxpu=1.2 model=1 kW=6.80007 kvar=1.3808131064174733 Phases=2

New Load.load_p1rlv6565 conn=wye bus1=p1rlv6565.1.2 kV=0.2080002494301389 Vminpu=0.8 Vmaxpu=1.2 model=1 kW=4.96005 kvar=1.0097734632697801 Phases=2

New Load.load_p1rlv6568 conn=wye bus1=p1rlv6568.1.2 kV=0.2080002494301389 Vminpu=0.8 Vmaxpu=1.2 model=1 kW=1.3000100000000003 kvar=0.43005421137611194 Phases=2
