New Line.l(r:p2udt231lv-p2ulv11954) Units=km Length=0.0148361 bus1=p2udt231lv.1.2 bus2=p2ulv11954.1.2 switch=n enabled=y phases=2 Linecode=1P_UG_AL_1/0_Brenau_0_416_0_2_2_2_2

New Line.l(r:p2udm851-p2ulv236) Units=km Length=0.0146144 bus1=p2udm851.1.2 bus2=p2ulv236.1.2 switch=n enabled=y phases=2 Linecode=1P_UG_AL_4/0_Sweetbriar_0_416_0_2_2_2_2

New Line.l(r:p2udm851-p2ulv11015) Units=km Length=0.0166061 bus1=p2udm851.1.2 bus2=p2ulv11015.1.2 switch=n enabled=y phases=2 Linecode=1P_UG_AL_4/0_Sweetbriar_0_416_0_2_2_2_2

New Line.l(r:p2udm851-p2udt231lv) Units=km Length=0.0196835 bus1=p2udt231lv.1.2 bus2=p2udm851.1.2 switch=n enabled=y phases=2 Linecode=1P_UG_AL_4/0_Sweetbriar_0_416_0_2_2_2_2

New Line.l(r:p2udm854-p2ulv22228) Units=km Length=0.016003300000000005 bus1=p2udm854.1.2 bus2=p2ulv22228.1.2 switch=n enabled=y phases=2 Linecode=1P_UG_AL_1/0_Brenau_0_416_0_2_2_2_2

New Line.l(r:p2udm854-p2udt231lv) Units=km Length=0.0196924 bus1=p2udt231lv.1.2 bus2=p2udm854.1.2 switch=n enabled=y phases=2 Linecode=1P_UG_AL_1/0_Brenau_0_416_0_2_2_2_2

New Line.l(r:p2udt239lv-p2ulv244) Units=km Length=0.0155105 bus1=p2udt239lv.1.2 bus2=p2ulv244.1.2 switch=n enabled=y phases=2 Linecode=1P_UG_AL_1/0_Brenau_0_416_0_2_2_2_2

New Line.l(r:p2udm882-p2ulv7740) Units=km Length=0.0152417 bus1=p2udm882.1.2 bus2=p2ulv7740.1.2 switch=n enabled=y phases=2 Linecode=1P_UG_AL_1/0_Brenau_0_416_0_2_2_2_2

New Line.l(r:p2udm882-p2ulv22910) Units=km Length=0.0152704 bus1=p2udm882.1.2 bus2=p2ulv22910.1.2 switch=n enabled=y phases=2 Linecode=1P_UG_AL_1/0_Brenau_0_416_0_2_2_2_2

New Line.l(r:p2udm882-p2udt239lv) Units=km Length=0.009662940000000002 bus1=p2udt239lv.1.2 bus2=p2udm882.1.2 switch=n enabled=y phases=2 Linecode=1P_UG_AL_4/0_Sweetbriar_0_416_0_2_2_2_2

New Line.l(r:p2udm883-p2ulv14486) Units=km Length=0.0158588 bus1=p2udm883.1.2 bus2=p2ulv14486.1.2 switch=n enabled=y phases=2 Linecode=1P_UG_AL_1/0_Brenau_0_416_0_2_2_2_2

New Line.l(r:p2udm883-p2ulv22234) Units=km Length=0.0151538 bus1=p2udm883.1.2 bus2=p2ulv22234.1.2 switch=n enabled=y phases=2 Linecode=1P_UG_AL_1/0_Brenau_0_416_0_2_2_2_2

New Line.l(r:p2udm883-p2ulv24230) Units=km Length=0.0161214 bus1=p2udm883.1.2 bus2=p2ulv24230.1.2 switch=n enabled=y phases=2 Linecode=1P_UG_AL_1/0_Brenau_0_416_0_2_2_2_2

New Line.l(r:p2udm883-p2udt239lv) Units=km Length=0.00966765 bus1=p2udt239lv.1.2 bus2=p2udm883.1.2 switch=n enabled=y phases=2 Linecode=1P_UG_AL_4/0_Sweetbriar_0_416_0_2_2_2_2

New Line.l(r:p2udt240lv-p2ulv245) Units=km Length=0.0151134 bus1=p2udt240lv.1.2 bus2=p2ulv245.1.2 switch=n enabled=y phases=2 Linecode=1P_UG_AL_1/0_Brenau_0_416_0_2_2_2_2

New Line.l(r:p2udt240lv-p2ulv23147) Units=km Length=0.0150947 bus1=p2udt240lv.1.2 bus2=p2ulv23147.1.2 switch=n enabled=y phases=2 Linecode=1P_UG_AL_1/0_Brenau_0_416_0_2_2_2_2

New Line.l(r:p2udt241lv-p2ulv7263) Units=km Length=0.0111548 bus1=p2udt241lv.1.2 bus2=p2ulv7263.1.2 switch=n enabled=y phases=2 Linecode=1P_UG_AL_1/0_Brenau_0_416_0_2_2_2_2

New Line.l(r:p2udm889-p2ulv246) Units=km Length=0.017402 bus1=p2udm889.1.2 bus2=p2ulv246.1.2 switch=n enabled=y phases=2 Linecode=1P_UG_AL_1/0_Brenau_0_416_0_2_2_2_2

New Line.l(r:p2udm893-p2ulv20436) Units=km Length=0.0181647 bus1=p2udm893.1.2 bus2=p2ulv20436.1.2 switch=n enabled=y phases=2 Linecode=1P_UG_AL_1/0_Brenau_0_416_0_2_2_2_2

New Line.l(r:p2udm889-p2udm893) Units=km Length=0.009200350000000001 bus1=p2udm889.1.2 bus2=p2udm893.1.2 switch=n enabled=y phases=2 Linecode=1P_UG_AL_1/0_Brenau_0_416_0_2_2_2_2

New Line.l(r:p2udm889-p2udt241lv) Units=km Length=0.00920913 bus1=p2udt241lv.1.2 bus2=p2udm889.1.2 switch=n enabled=y phases=2 Linecode=1P_UG_AL_4/0_Sweetbriar_0_416_0_2_2_2_2

New Line.l(r:p2udm894-p2ulv22913) Units=km Length=0.0157525 bus1=p2udm894.1.2 bus2=p2ulv22913.1.2 switch=n enabled=y phases=2 Linecode=1P_UG_AL_1/0_Brenau_0_416_0_2_2_2_2

New Line.l(r:p2udm892-p2ulv17722) Units=km Length=0.0117423 bus1=p2udm892.1.2 bus2=p2ulv17722.1.2 switch=n enabled=y phases=2 Linecode=1P_UG_AL_1/0_Brenau_0_416_0_2_2_2_2

New Line.l(r:p2udm891-p2ulv8862) Units=km Length=0.0164358 bus1=p2udm891.1.2 bus2=p2ulv8862.1.2 switch=n enabled=y phases=2 Linecode=1P_UG_AL_1/0_Brenau_0_416_0_2_2_2_2

New Line.l(r:p2udm891-p2udm892) Units=km Length=0.00919557 bus1=p2udm892.1.2 bus2=p2udm891.1.2 switch=n enabled=y phases=2 Linecode=1P_UG_AL_1/0_Brenau_0_416_0_2_2_2_2

New Line.l(r:p2udm892-p2udm894) Units=km Length=0.00920913 bus1=p2udm894.1.2 bus2=p2udm892.1.2 switch=n enabled=y phases=2 Linecode=1P_UG_AL_4/0_Sweetbriar_0_416_0_2_2_2_2

New Line.l(r:p2udm894-p2udt241lv) Units=km Length=0.009200350000000001 bus1=p2udt241lv.1.2 bus2=p2udm894.1.2 switch=n enabled=y phases=2 Linecode=1P_UG_AL_4/0_Sweetbriar_0_416_0_2_2_2_2

New Line.l(r:p2udt242lv-p2ulv13393) Units=km Length=0.0221353 bus1=p2udt242lv.1.2 bus2=p2ulv13393.1.2 switch=n enabled=y phases=2 Linecode=1P_UG_AL_1/0_Brenau_0_416_0_2_2_2_2

New Line.l(r:p2udm895-p2ulv247) Units=km Length=0.022308900000000003 bus1=p2udm895.1.2 bus2=p2ulv247.1.2 switch=n enabled=y phases=2 Linecode=1P_UG_AL_1/0_Brenau_0_416_0_2_2_2_2

New Line.l(r:p2udm895-p2ulv22486) Units=km Length=0.0165188 bus1=p2udm895.1.2 bus2=p2ulv22486.1.2 switch=n enabled=y phases=2 Linecode=1P_UG_AL_1/0_Brenau_0_416_0_2_2_2_2

New Line.l(r:p2udm895-p2udt242lv) Units=km Length=0.009111410000000002 bus1=p2udt242lv.1.2 bus2=p2udm895.1.2 switch=n enabled=y phases=2 Linecode=1P_UG_AL_4/0_Sweetbriar_0_416_0_2_2_2_2

New Line.l(r:p2udt243lv-p2ulv475) Units=km Length=0.0163705 bus1=p2udt243lv.1.2 bus2=p2ulv475.1.2 switch=n enabled=y phases=2 Linecode=1P_OH_AL_2/0_Rucina_0_416_0_2_2_2_2

New Line.l(r:p2udt243lv-p2ulv8224) Units=km Length=0.013249 bus1=p2udt243lv.1.2 bus2=p2ulv8224.1.2 switch=n enabled=y phases=2 Linecode=1P_OH_AL_2/0_Rucina_0_416_0_2_2_2_2

New Line.l(r:p2udm898-p2ulv248) Units=km Length=0.0139673 bus1=p2udm898.1.2 bus2=p2ulv248.1.2 switch=n enabled=y phases=2 Linecode=1P_OH_AL_2/0_Rucina_0_416_0_2_2_2_2

New Line.l(r:p2udm900-p2ulv4106) Units=km Length=0.017585200000000002 bus1=p2udm900.1.2 bus2=p2ulv4106.1.2 switch=n enabled=y phases=2 Linecode=1P_OH_AL_2/0_Rucina_0_416_0_2_2_2_2

New Line.l(r:p2udm898-p2udm900) Units=km Length=0.0371248 bus1=p2udm898.1.2 bus2=p2udm900.1.2 switch=n enabled=y phases=2 Linecode=1P_OH_AL_4/0_Zuzara_0_416_0_2_2_2_2

New Line.l(r:p2udm898-p2udt243lv) Units=km Length=0.018571200000000003 bus1=p2udt243lv.1.2 bus2=p2udm898.1.2 switch=n enabled=y phases=2 Linecode=1P_OH_AL_2/0_Rucina_0_416_0_2_2_2_2

New Line.l(r:p2udm901-p2ulv7744) Units=km Length=0.014115400000000002 bus1=p2udm901.1.2 bus2=p2ulv7744.1.2 switch=n enabled=y phases=2 Linecode=1P_OH_AL_2/0_Rucina_0_416_0_2_2_2_2

New Line.l(r:p2udm901-p2ulv19980) Units=km Length=0.0164802 bus1=p2udm901.1.2 bus2=p2ulv19980.1.2 switch=n enabled=y phases=2 Linecode=1P_OH_AL_2/0_Rucina_0_416_0_2_2_2_2

New Line.l(r:p2udm901-p2udt243lv) Units=km Length=0.0185577 bus1=p2udt243lv.1.2 bus2=p2udm901.1.2 switch=n enabled=y phases=2 Linecode=1P_OH_AL_2/0_Rucina_0_416_0_2_2_2_2

New Line.l(r:p2udt244lv-p2ulv249) Units=km Length=0.0127767 bus1=p2udt244lv.1.2 bus2=p2ulv249.1.2 switch=n enabled=y phases=2 Linecode=1P_UG_AL_1/0_Brenau_0_416_0_2_2_2_2

New Line.l(r:p2udt244lv-p2ulv2157) Units=km Length=0.0138319 bus1=p2udt244lv.1.2 bus2=p2ulv2157.1.2 switch=n enabled=y phases=2 Linecode=1P_UG_AL_1/0_Brenau_0_416_0_2_2_2_2

New Line.l(r:p2udt244lv-p2ulv23152) Units=km Length=0.0141375 bus1=p2udt244lv.1.2 bus2=p2ulv23152.1.2 switch=n enabled=y phases=2 Linecode=1P_UG_AL_1/0_Brenau_0_416_0_2_2_2_2

New Line.l(r:p2udm906-p2ulv8665) Units=km Length=0.0143963 bus1=p2udm906.1.2 bus2=p2ulv8665.1.2 switch=n enabled=y phases=2 Linecode=1P_UG_AL_1/0_Brenau_0_416_0_2_2_2_2

New Line.l(r:p2udm906-p2udt244lv) Units=km Length=0.0785658 bus1=p2udt244lv.1.2 bus2=p2udm906.1.2 switch=n enabled=y phases=2 Linecode=1P_UG_AL_1/0_Brenau_0_416_0_2_2_2_2

New Line.l(r:p2udt245lv-p2ulv14494) Units=km Length=0.0145442 bus1=p2udt245lv.1.2 bus2=p2ulv14494.1.2 switch=n enabled=y phases=2 Linecode=1P_UG_AL_1/0_Brenau_0_416_0_2_2_2_2

New Line.l(r:p2udm908-p2ulv250) Units=km Length=0.0153683 bus1=p2udm908.1.2 bus2=p2ulv250.1.2 switch=n enabled=y phases=2 Linecode=1P_UG_AL_1/0_Brenau_0_416_0_2_2_2_2

New Line.l(r:p2udm908-p2ulv5108) Units=km Length=0.0157228 bus1=p2udm908.1.2 bus2=p2ulv5108.1.2 switch=n enabled=y phases=2 Linecode=1P_UG_AL_1/0_Brenau_0_416_0_2_2_2_2

New Line.l(r:p2udm908-p2udt245lv) Units=km Length=0.00986943 bus1=p2udt245lv.1.2 bus2=p2udm908.1.2 switch=n enabled=y phases=2 Linecode=1P_UG_AL_2/0_Converse_0_416_0_2_2_2_2

New Line.l(r:p2udm909-p2ulv251) Units=km Length=0.0157706 bus1=p2udm909.1.2 bus2=p2ulv251.1.2 switch=n enabled=y phases=2 Linecode=1P_UG_AL_1/0_Brenau_0_416_0_2_2_2_2

New Line.l(r:p2udm909-p2ulv15178) Units=km Length=0.0149762 bus1=p2udm909.1.2 bus2=p2ulv15178.1.2 switch=n enabled=y phases=2 Linecode=1P_UG_AL_1/0_Brenau_0_416_0_2_2_2_2

New Line.l(r:p2udm909-p2udt245lv) Units=km Length=0.00986943 bus1=p2udt245lv.1.2 bus2=p2udm909.1.2 switch=n enabled=y phases=2 Linecode=1P_UG_AL_4/0_Sweetbriar_0_416_0_2_2_2_2

New Line.l(r:p2udt246lv-p2ulv2158) Units=km Length=0.0155202 bus1=p2udt246lv.1.2 bus2=p2ulv2158.1.2 switch=n enabled=y phases=2 Linecode=1P_UG_AL_1/0_Brenau_0_416_0_2_2_2_2

New Line.l(r:p2udm913-p2ulv252) Units=km Length=0.0128511 bus1=p2udm913.1.2 bus2=p2ulv252.1.2 switch=n enabled=y phases=2 Linecode=1P_UG_AL_1/0_Brenau_0_416_0_2_2_2_2

New Line.l(r:p2udm913-p2udt246lv) Units=km Length=0.04780960000000001 bus1=p2udt246lv.1.2 bus2=p2udm913.1.2 switch=n enabled=y phases=2 Linecode=1P_UG_AL_1/0_Brenau_0_416_0_2_2_2_2

New Line.l(r:p2udm916-p2ulv16576) Units=km Length=0.014633000000000002 bus1=p2udm916.1.2 bus2=p2ulv16576.1.2 switch=n enabled=y phases=2 Linecode=1P_UG_AL_1/0_Brenau_0_416_0_2_2_2_2

New Line.l(r:p2udm915-p2ulv11734) Units=km Length=0.013926400000000002 bus1=p2udm915.1.2 bus2=p2ulv11734.1.2 switch=n enabled=y phases=2 Linecode=1P_UG_AL_1/0_Brenau_0_416_0_2_2_2_2

New Line.l(r:p2udm915-p2udm916) Units=km Length=0.0095118 bus1=p2udm916.1.2 bus2=p2udm915.1.2 switch=n enabled=y phases=2 Linecode=1P_UG_AL_1/0_Brenau_0_416_0_2_2_2_2

New Line.l(r:p2udm916-p2udt246lv) Units=km Length=0.00951654 bus1=p2udt246lv.1.2 bus2=p2udm916.1.2 switch=n enabled=y phases=2 Linecode=1P_UG_AL_4/0_Sweetbriar_0_416_0_2_2_2_2

New Line.l(r:p2udt453lv-p2ulv24232) Units=km Length=0.016065900000000004 bus1=p2udt453lv.1.2 bus2=p2ulv24232.1.2 switch=n enabled=y phases=2 Linecode=1P_UG_AL_1/0_Brenau_0_416_0_2_2_2_2

New Line.l(r:p2udm1675-p2ulv3856) Units=km Length=0.015191 bus1=p2udm1675.1.2 bus2=p2ulv3856.1.2 switch=n enabled=y phases=2 Linecode=1P_UG_AL_1/0_Brenau_0_416_0_2_2_2_2

New Line.l(r:p2udm1675-p2ulv6997) Units=km Length=0.0148241 bus1=p2udm1675.1.2 bus2=p2ulv6997.1.2 switch=n enabled=y phases=2 Linecode=1P_UG_AL_1/0_Brenau_0_416_0_2_2_2_2

New Line.l(r:p2udm1678-p2ulv19541) Units=km Length=0.0147529 bus1=p2udm1678.1.2 bus2=p2ulv19541.1.2 switch=n enabled=y phases=2 Linecode=1P_UG_AL_1/0_Brenau_0_416_0_2_2_2_2

New Line.l(r:p2udm1675-p2udm1678) Units=km Length=0.00965412 bus1=p2udm1675.1.2 bus2=p2udm1678.1.2 switch=n enabled=y phases=2 Linecode=1P_UG_AL_1/0_Brenau_0_416_0_2_2_2_2

New Line.l(r:p2udm1675-p2udt453lv) Units=km Length=0.00966765 bus1=p2udt453lv.1.2 bus2=p2udm1675.1.2 switch=n enabled=y phases=2 Linecode=1P_UG_AL_4/0_Sweetbriar_0_416_0_2_2_2_2

New Line.l(r:p2udm1677-p2ulv11961) Units=km Length=0.015178600000000002 bus1=p2udm1677.1.2 bus2=p2ulv11961.1.2 switch=n enabled=y phases=2 Linecode=1P_UG_AL_1/0_Brenau_0_416_0_2_2_2_2

New Line.l(r:p2udm1674-p2ulv472) Units=km Length=0.015358100000000001 bus1=p2udm1674.1.2 bus2=p2ulv472.1.2 switch=n enabled=y phases=2 Linecode=1P_UG_AL_1/0_Brenau_0_416_0_2_2_2_2

New Line.l(r:p2udm1674-p2udm1677) Units=km Length=0.00965412 bus1=p2udm1677.1.2 bus2=p2udm1674.1.2 switch=n enabled=y phases=2 Linecode=1P_UG_AL_1/0_Brenau_0_416_0_2_2_2_2

New Line.l(r:p2udm1677-p2udt453lv) Units=km Length=0.00966765 bus1=p2udt453lv.1.2 bus2=p2udm1677.1.2 switch=n enabled=y phases=2 Linecode=1P_UG_AL_4/0_Sweetbriar_0_416_0_2_2_2_2

New Line.l(r:p2udt455lv-p2ulv5309) Units=km Length=0.0165735 bus1=p2udt455lv.1.2 bus2=p2ulv5309.1.2 switch=n enabled=y phases=2 Linecode=1P_OH_AL_2/0_Rucina_0_416_0_2_2_2_2

New Line.l(r:p2udt455lv-p2ulv11962) Units=km Length=0.0138065 bus1=p2udt455lv.1.2 bus2=p2ulv11962.1.2 switch=n enabled=y phases=2 Linecode=1P_OH_AL_2/0_Rucina_0_416_0_2_2_2_2

New Line.l(r:p2udm1682-p2ulv474) Units=km Length=0.0158201 bus1=p2udm1682.1.2 bus2=p2ulv474.1.2 switch=n enabled=y phases=2 Linecode=1P_OH_AL_2/0_Rucina_0_416_0_2_2_2_2

New Line.l(r:p2udm1682-p2ulv957) Units=km Length=0.0170676 bus1=p2udm1682.1.2 bus2=p2ulv957.1.2 switch=n enabled=y phases=2 Linecode=1P_OH_AL_2/0_Rucina_0_416_0_2_2_2_2

New Line.l(r:p2udm1682-p2udt455lv) Units=km Length=0.0198182 bus1=p2udt455lv.1.2 bus2=p2udm1682.1.2 switch=n enabled=y phases=2 Linecode=1P_OH_AL_2/0_Rucina_0_416_0_2_0_2_2_2

New Line.l(r:p2udt456lv-p2ulv2413) Units=km Length=0.015585400000000001 bus1=p2udt456lv.1.2 bus2=p2ulv2413.1.2 switch=n enabled=y phases=2 Linecode=1P_UG_AL_1/0_Brenau_0_416_0_2_2_2_2

New Line.l(r:p2udt456lv-p2ulv20438) Units=km Length=0.0134132 bus1=p2udt456lv.1.2 bus2=p2ulv20438.1.2 switch=n enabled=y phases=2 Linecode=1P_UG_AL_1/0_Brenau_0_416_0_2_2_2_2

New Line.l(r:p2udm1686-p2ulv476) Units=km Length=0.0157947 bus1=p2udm1686.1.2 bus2=p2ulv476.1.2 switch=n enabled=y phases=2 Linecode=1P_UG_AL_1/0_Brenau_0_416_0_2_2_2_2

New Line.l(r:p2udm1686-p2udt456lv) Units=km Length=0.009782120000000002 bus1=p2udt456lv.1.2 bus2=p2udm1686.1.2 switch=n enabled=y phases=2 Linecode=1P_UG_AL_1/0_Brenau_0_416_0_2_2_2_2

New Line.l(r:p2udm1688-p2ulv11255) Units=km Length=0.0137879 bus1=p2udm1688.1.2 bus2=p2ulv11255.1.2 switch=n enabled=y phases=2 Linecode=1P_UG_AL_1/0_Brenau_0_416_0_2_2_2_2

New Line.l(r:p2udm1688-p2udt456lv) Units=km Length=0.00979098 bus1=p2udt456lv.1.2 bus2=p2udm1688.1.2 switch=n enabled=y phases=2 Linecode=1P_UG_AL_1/0_Brenau_0_416_0_2_2_2_2

New Line.l(r:p2udt661lv-p2ulv13148) Units=km Length=0.0182644 bus1=p2udt661lv.1.2 bus2=p2ulv13148.1.2 switch=n enabled=y phases=2 Linecode=1P_UG_AL_1/0_Brenau_0_416_0_2_2_2_2

New Line.l(r:p2udm2459-p2ulv1920) Units=km Length=0.0128896 bus1=p2udm2459.1.2 bus2=p2ulv1920.1.2 switch=n enabled=y phases=2 Linecode=1P_UG_AL_1/0_Brenau_0_416_0_2_2_2_2

New Line.l(r:p2udm2458-p2ulv700) Units=km Length=0.0123001 bus1=p2udm2458.1.2 bus2=p2ulv700.1.2 switch=n enabled=y phases=2 Linecode=1P_UG_AL_1/0_Brenau_0_416_0_2_2_2_2

New Line.l(r:p2udm2458-p2ulv3382) Units=km Length=0.0170127 bus1=p2udm2458.1.2 bus2=p2ulv3382.1.2 switch=n enabled=y phases=2 Linecode=1P_UG_AL_1/0_Brenau_0_416_0_2_2_2_2

New Line.l(r:p2udm2458-p2udm2459) Units=km Length=0.00976484 bus1=p2udm2459.1.2 bus2=p2udm2458.1.2 switch=n enabled=y phases=2 Linecode=1P_UG_AL_4/0_Sweetbriar_0_416_0_2_2_2_2

New Line.l(r:p2udm2459-p2udt661lv) Units=km Length=0.00977369 bus1=p2udt661lv.1.2 bus2=p2udm2459.1.2 switch=n enabled=y phases=2 Linecode=1P_UG_AL_4/0_Sweetbriar_0_416_0_2_2_2_2

New Line.l(r:p2udm2461-p2ulv5103) Units=km Length=0.0174836 bus1=p2udm2461.1.2 bus2=p2ulv5103.1.2 switch=n enabled=y phases=2 Linecode=1P_UG_AL_1/0_Brenau_0_416_0_2_2_2_2

New Line.l(r:p2udm2463-p2ulv18807) Units=km Length=0.0124255 bus1=p2udm2463.1.2 bus2=p2ulv18807.1.2 switch=n enabled=y phases=2 Linecode=1P_UG_AL_1/0_Brenau_0_416_0_2_2_2_2

New Line.l(r:p2udm2461-p2udm2463) Units=km Length=0.00977369 bus1=p2udm2461.1.2 bus2=p2udm2463.1.2 switch=n enabled=y phases=2 Linecode=1P_UG_AL_1/0_Brenau_0_416_0_2_2_2_2

New Line.l(r:p2udm2461-p2udt661lv) Units=km Length=0.00976018 bus1=p2udt661lv.1.2 bus2=p2udm2461.1.2 switch=n enabled=y phases=2 Linecode=1P_UG_AL_4/0_Sweetbriar_0_416_0_2_2_2_2

New Line.l(r:p2udt662lv-p2ulv701) Units=km Length=0.014033900000000002 bus1=p2udt662lv.1.2 bus2=p2ulv701.1.2 switch=n enabled=y phases=2 Linecode=1P_UG_AL_1/0_Brenau_0_416_0_2_2_2_2

New Line.l(r:p2udt662lv-p2ulv8223) Units=km Length=0.0162428 bus1=p2udt662lv.1.2 bus2=p2ulv8223.1.2 switch=n enabled=y phases=2 Linecode=1P_UG_AL_1/0_Brenau_0_416_0_2_2_2_2

New Line.l(r:p2udm2465-p2ulv4354) Units=km Length=0.012308100000000002 bus1=p2udm2465.1.2 bus2=p2ulv4354.1.2 switch=n enabled=y phases=2 Linecode=1P_UG_AL_1/0_Brenau_0_416_0_2_2_2_2

New Line.l(r:p2udm2465-p2udt662lv) Units=km Length=0.012589 bus1=p2udt662lv.1.2 bus2=p2udm2465.1.2 switch=n enabled=y phases=2 Linecode=1P_UG_AL_1/0_Brenau_0_416_0_2_2_2_2

New Line.l(r:p2udm2467-p2ulv19767) Units=km Length=0.011153500000000002 bus1=p2udm2467.1.2 bus2=p2ulv19767.1.2 switch=n enabled=y phases=2 Linecode=1P_UG_AL_1/0_Brenau_0_416_0_2_2_2_2

New Line.l(r:p2udm2467-p2udt662lv) Units=km Length=0.0225953 bus1=p2udt662lv.1.2 bus2=p2udm2467.1.2 switch=n enabled=y phases=2 Linecode=1P_UG_AL_1/0_Brenau_0_416_0_2_2_2_2

New Line.l(r:p2udt663lv-p2ulv702) Units=km Length=0.0148585 bus1=p2udt663lv.1.2 bus2=p2ulv702.1.2 switch=n enabled=y phases=2 Linecode=1P_UG_AL_1/0_Brenau_0_416_0_2_2_2_2

New Line.l(r:p2udm2469-p2ulv1201) Units=km Length=0.0164394 bus1=p2udm2469.1.2 bus2=p2ulv1201.1.2 switch=n enabled=y phases=2 Linecode=1P_UG_AL_1/0_Brenau_0_416_0_2_2_2_2

New Line.l(r:p2udm2469-p2udt663lv) Units=km Length=0.00936238 bus1=p2udt663lv.1.2 bus2=p2udm2469.1.2 switch=n enabled=y phases=2 Linecode=1P_UG_AL_1/0_Brenau_0_416_0_2_2_2_2

New Line.l(r:p2udt664lv-p2ulv2414) Units=km Length=0.0135708 bus1=p2udt664lv.1.2 bus2=p2ulv2414.1.2 switch=n enabled=y phases=2 Linecode=1P_UG_AL_1/0_Brenau_0_416_0_2_2_2_2

New Line.l(r:p2udm2470-p2ulv703) Units=km Length=0.014544000000000001 bus1=p2udm2470.1.2 bus2=p2ulv703.1.2 switch=n enabled=y phases=2 Linecode=1P_UG_AL_1/0_Brenau_0_416_0_2_2_2_2

New Line.l(r:p2udm2470-p2udt664lv) Units=km Length=0.018931200000000002 bus1=p2udt664lv.1.2 bus2=p2udm2470.1.2 switch=n enabled=y phases=2 Linecode=1P_UG_AL_1/0_Brenau_0_416_0_2_2_2_2

New Line.l(r:p2udm2473-p2ulv11256) Units=km Length=0.0152845 bus1=p2udm2473.1.2 bus2=p2ulv11256.1.2 switch=n enabled=y phases=2 Linecode=1P_UG_AL_1/0_Brenau_0_416_0_2_2_2_2

New Line.l(r:p2udm2472-p2ulv7266) Units=km Length=0.012985 bus1=p2udm2472.1.2 bus2=p2ulv7266.1.2 switch=n enabled=y phases=2 Linecode=1P_UG_AL_1/0_Brenau_0_416_0_2_2_2_2

New Line.l(r:p2udm2472-p2udm2473) Units=km Length=0.0195284 bus1=p2udm2473.1.2 bus2=p2udm2472.1.2 switch=n enabled=y phases=2 Linecode=1P_UG_AL_1/0_Brenau_0_416_0_2_2_2_2

New Line.l(r:p2udm2473-p2udt664lv) Units=km Length=0.00946789 bus1=p2udt664lv.1.2 bus2=p2udm2473.1.2 switch=n enabled=y phases=2 Linecode=1P_UG_AL_4/0_Sweetbriar_0_416_0_2_2_2_2

New Line.l(r:p2udt665lv-p2ulv4612) Units=km Length=0.0136324 bus1=p2udt665lv.1.2 bus2=p2ulv4612.1.2 switch=n enabled=y phases=2 Linecode=1P_UG_AL_1/0_Brenau_0_416_0_2_2_2_2

New Line.l(r:p2udm2476-p2ulv9813) Units=km Length=0.0146289 bus1=p2udm2476.1.2 bus2=p2ulv9813.1.2 switch=n enabled=y phases=2 Linecode=1P_UG_AL_1/0_Brenau_0_416_0_2_2_2_2

New Line.l(r:p2udm2476-p2ulv21764) Units=km Length=0.0151908 bus1=p2udm2476.1.2 bus2=p2ulv21764.1.2 switch=n enabled=y phases=2 Linecode=1P_UG_AL_1/0_Brenau_0_416_0_2_2_2_2

New Line.l(r:p2udm2476-p2udt665lv) Units=km Length=0.009782120000000002 bus1=p2udt665lv.1.2 bus2=p2udm2476.1.2 switch=n enabled=y phases=2 Linecode=1P_UG_AL_4/0_Sweetbriar_0_416_0_2_2_2_2

New Line.l(r:p2udm2477-p2ulv12422) Units=km Length=0.015129300000000002 bus1=p2udm2477.1.2 bus2=p2ulv12422.1.2 switch=n enabled=y phases=2 Linecode=1P_UG_AL_1/0_Brenau_0_416_0_2_2_2_2

New Line.l(r:p2udm2474-p2ulv704) Units=km Length=0.015936 bus1=p2udm2474.1.2 bus2=p2ulv704.1.2 switch=n enabled=y phases=2 Linecode=1P_UG_AL_1/0_Brenau_0_416_0_2_2_2_2

New Line.l(r:p2udm2474-p2ulv13622) Units=km Length=0.014108700000000002 bus1=p2udm2474.1.2 bus2=p2ulv13622.1.2 switch=n enabled=y phases=2 Linecode=1P_UG_AL_1/0_Brenau_0_416_0_2_2_2_2

New Line.l(r:p2udm2474-p2udm2477) Units=km Length=0.00979098 bus1=p2udm2477.1.2 bus2=p2udm2474.1.2 switch=n enabled=y phases=2 Linecode=1P_UG_AL_4/0_Sweetbriar_0_416_0_2_2_2_2

New Line.l(r:p2udm2477-p2udt665lv) Units=km Length=0.00979098 bus1=p2udt665lv.1.2 bus2=p2udm2477.1.2 switch=n enabled=y phases=2 Linecode=1P_UG_AL_4/0_Sweetbriar_0_416_0_2_2_2_2

New Line.l(r:p2udm2480-p2ulv705) Units=km Length=0.0167693 bus1=p2udm2480.1.2 bus2=p2ulv705.1.2 switch=n enabled=y phases=2 Linecode=1P_UG_AL_1/0_Brenau_0_416_0_2_2_2_2

New Line.l(r:p2udm2480-p2udt666lv) Units=km Length=0.00916398 bus1=p2udt666lv.1.2 bus2=p2udm2480.1.2 switch=n enabled=y phases=2 Linecode=1P_UG_AL_1/0_Brenau_0_416_0_2_2_2_2

New Line.l(r:p2udm2481-p2ulv1205) Units=km Length=0.012929000000000001 bus1=p2udm2481.1.2 bus2=p2ulv1205.1.2 switch=n enabled=y phases=2 Linecode=1P_UG_AL_1/0_Brenau_0_416_0_2_2_2_2

New Line.l(r:p2udm2481-p2udt666lv) Units=km Length=0.00915052 bus1=p2udt666lv.1.2 bus2=p2udm2481.1.2 switch=n enabled=y phases=2 Linecode=1P_UG_AL_1/0_Brenau_0_416_0_2_2_2_2

New Line.l(r:p2udt888lv-p2ulv8454) Units=km Length=0.013233500000000002 bus1=p2udt888lv.1.2 bus2=p2ulv8454.1.2 switch=n enabled=y phases=2 Linecode=1P_UG_AL_1/0_Brenau_0_416_0_2_2_2_2

New Line.l(r:p2udm3282-p2ulv949) Units=km Length=0.0201431 bus1=p2udm3282.1.2 bus2=p2ulv949.1.2 switch=n enabled=y phases=2 Linecode=1P_UG_AL_1/0_Brenau_0_416_0_2_2_2_2

New Line.l(r:p2udm3282-p2ulv22908) Units=km Length=0.012993900000000001 bus1=p2udm3282.1.2 bus2=p2ulv22908.1.2 switch=n enabled=y phases=2 Linecode=1P_UG_AL_1/0_Brenau_0_416_0_2_2_2_2

New Line.l(r:p2udm3282-p2udt888lv) Units=km Length=0.00958514 bus1=p2udt888lv.1.2 bus2=p2udm3282.1.2 switch=n enabled=y phases=2 Linecode=1P_UG_AL_4/0_Sweetbriar_0_416_0_2_2_2_2

New Line.l(r:p2udm3284-p2ulv21077) Units=km Length=0.0281869 bus1=p2udm3284.1.2 bus2=p2ulv21077.1.2 switch=n enabled=y phases=2 Linecode=1P_UG_AL_1/0_Brenau_0_416_0_2_2_2_2

New Line.l(r:p2udm3284-p2udt888lv) Units=km Length=0.009594010000000002 bus1=p2udt888lv.1.2 bus2=p2udm3284.1.2 switch=n enabled=y phases=2 Linecode=1P_UG_AL_1/0_Brenau_0_416_0_2_2_2_2

New Line.l(r:p2udm3288-p2ulv10051) Units=km Length=0.0157517 bus1=p2udm3288.1.2 bus2=p2ulv10051.1.2 switch=n enabled=y phases=2 Linecode=1P_UG_AL_1/0_Brenau_0_416_0_2_2_2_2

New Line.l(r:p2udm3288-p2udt890lv) Units=km Length=0.0390876 bus1=p2udt890lv.1.2 bus2=p2udm3288.1.2 switch=n enabled=y phases=2 Linecode=1P_UG_AL_1/0_Brenau_0_416_0_2_2_2_2

New Line.l(r:p2udm3289-p2ulv20651) Units=km Length=0.0144036 bus1=p2udm3289.1.2 bus2=p2ulv20651.1.2 switch=n enabled=y phases=2 Linecode=1P_UG_AL_1/0_Brenau_0_416_0_2_2_2_2

New Line.l(r:p2udm3290-p2ulv21070) Units=km Length=0.0143878 bus1=p2udm3290.1.2 bus2=p2ulv21070.1.2 switch=n enabled=y phases=2 Linecode=1P_UG_AL_1/0_Brenau_0_416_0_2_2_2_2

New Line.l(r:p2udm3287-p2ulv951) Units=km Length=0.0145697 bus1=p2udm3287.1.2 bus2=p2ulv951.1.2 switch=n enabled=y phases=2 Linecode=1P_UG_AL_1/0_Brenau_0_416_0_2_2_2_2

New Line.l(r:p2udm3287-p2udm3290) Units=km Length=0.00977158 bus1=p2udm3290.1.2 bus2=p2udm3287.1.2 switch=n enabled=y phases=2 Linecode=1P_UG_AL_1/0_Brenau_0_416_0_2_2_2_2

New Line.l(r:p2udm3289-p2udm3290) Units=km Length=0.00977158 bus1=p2udm3289.1.2 bus2=p2udm3290.1.2 switch=n enabled=y phases=2 Linecode=1P_UG_AL_4/0_Sweetbriar_0_416_0_2_2_2_2

New Line.l(r:p2udm3289-p2udt890lv) Units=km Length=0.009782790000000001 bus1=p2udt890lv.1.2 bus2=p2udm3289.1.2 switch=n enabled=y phases=2 Linecode=1P_UG_AL_4/0_Sweetbriar_0_416_0_2_2_2_2

New Line.l(r:p2udt891lv-p2ulv24233) Units=km Length=0.0151041 bus1=p2udt891lv.1.2 bus2=p2ulv24233.1.2 switch=n enabled=y phases=2 Linecode=1P_UG_AL_1/0_Brenau_0_416_0_2_2_2_2

New Line.l(r:p2udm3293-p2ulv14489) Units=km Length=0.0148862 bus1=p2udm3293.1.2 bus2=p2ulv14489.1.2 switch=n enabled=y phases=2 Linecode=1P_UG_AL_1/0_Brenau_0_416_0_2_2_2_2

New Line.l(r:p2udm3294-p2ulv17723) Units=km Length=0.0152513 bus1=p2udm3294.1.2 bus2=p2ulv17723.1.2 switch=n enabled=y phases=2 Linecode=1P_UG_AL_1/0_Brenau_0_416_0_2_2_2_2

New Line.l(r:p2udm3293-p2udm3294) Units=km Length=0.00977158 bus1=p2udm3293.1.2 bus2=p2udm3294.1.2 switch=n enabled=y phases=2 Linecode=1P_UG_AL_1/0_Brenau_0_416_0_2_2_2_2

New Line.l(r:p2udm3293-p2udt891lv) Units=km Length=0.00977287 bus1=p2udt891lv.1.2 bus2=p2udm3293.1.2 switch=n enabled=y phases=2 Linecode=1P_UG_AL_4/0_Sweetbriar_0_416_0_2_2_2_2

New Line.l(r:p2udm3295-p2ulv23542) Units=km Length=0.0151943 bus1=p2udm3295.1.2 bus2=p2ulv23542.1.2 switch=n enabled=y phases=2 Linecode=1P_UG_AL_1/0_Brenau_0_416_0_2_2_2_2

New Line.l(r:p2udm3291-p2ulv952) Units=km Length=0.0163941 bus1=p2udm3291.1.2 bus2=p2ulv952.1.2 switch=n enabled=y phases=2 Linecode=1P_UG_AL_1/0_Brenau_0_416_0_2_2_2_2

New Line.l(r:p2udm3291-p2ulv8220) Units=km Length=0.0149498 bus1=p2udm3291.1.2 bus2=p2ulv8220.1.2 switch=n enabled=y phases=2 Linecode=1P_UG_AL_1/0_Brenau_0_416_0_2_2_2_2

New Line.l(r:p2udm3291-p2udm3295) Units=km Length=0.00977158 bus1=p2udm3295.1.2 bus2=p2udm3291.1.2 switch=n enabled=y phases=2 Linecode=1P_UG_AL_4/0_Sweetbriar_0_416_0_2_2_2_2

New Line.l(r:p2udm3295-p2udt891lv) Units=km Length=0.00977158 bus1=p2udt891lv.1.2 bus2=p2udm3295.1.2 switch=n enabled=y phases=2 Linecode=1P_UG_AL_4/0_Sweetbriar_0_416_0_2_2_2_2

New Line.l(r:p2udt892lv-p2ulv953) Units=km Length=0.0129116 bus1=p2udt892lv.1.2 bus2=p2ulv953.1.2 switch=n enabled=y phases=2 Linecode=1P_UG_AL_4/0_Sweetbriar_0_416_0_2_2_2_2

New Line.l(r:p2udt892lv-p2ulv8221) Units=km Length=0.0178907 bus1=p2udt892lv.1.2 bus2=p2ulv8221.1.2 switch=n enabled=y phases=2 Linecode=1P_UG_AL_4/0_Sweetbriar_0_416_0_2_2_2_2

New Line.l(r:p2udt893lv-p2ulv9118) Units=km Length=0.0149182 bus1=p2udt893lv.1.2 bus2=p2ulv9118.1.2 switch=n enabled=y phases=2 Linecode=1P_UG_AL_1/0_Brenau_0_416_0_2_2_2_2

New Line.l(r:p2udm3299-p2ulv954) Units=km Length=0.0137561 bus1=p2udm3299.1.2 bus2=p2ulv954.1.2 switch=n enabled=y phases=2 Linecode=1P_UG_AL_1/0_Brenau_0_416_0_2_2_2_2

New Line.l(r:p2udm3299-p2udt893lv) Units=km Length=0.0123671 bus1=p2udt893lv.1.2 bus2=p2udm3299.1.2 switch=n enabled=y phases=2 Linecode=1P_UG_AL_1/0_Brenau_0_416_0_2_2_2_2

New Line.l(r:p2udm3302-p2ulv15869) Units=km Length=0.014573800000000001 bus1=p2udm3302.1.2 bus2=p2ulv15869.1.2 switch=n enabled=y phases=2 Linecode=1P_UG_AL_1/0_Brenau_0_416_0_2_2_2_2

New Line.l(r:p2udm3301-p2ulv13398) Units=km Length=0.0185887 bus1=p2udm3301.1.2 bus2=p2ulv13398.1.2 switch=n enabled=y phases=2 Linecode=1P_UG_AL_1/0_Brenau_0_416_0_2_2_2_2

New Line.l(r:p2udm3301-p2udm3302) Units=km Length=0.006844160000000001 bus1=p2udm3302.1.2 bus2=p2udm3301.1.2 switch=n enabled=y phases=2 Linecode=1P_UG_AL_1/0_Brenau_0_416_0_2_2_2_2

New Line.l(r:p2udm3302-p2udt893lv) Units=km Length=0.0107924 bus1=p2udt893lv.1.2 bus2=p2udm3302.1.2 switch=n enabled=y phases=2 Linecode=1P_UG_AL_4/0_Sweetbriar_0_416_0_2_2_2_2

New Line.l(r:p2udt894lv-p2ulv955) Units=km Length=0.0223118 bus1=p2udt894lv.1.2 bus2=p2ulv955.1.2 switch=n enabled=y phases=2 Linecode=1P_UG_AL_1/0_Brenau_0_416_0_2_2_2_2

New Line.l(r:p2udt894lv-p2ulv10054) Units=km Length=0.0247414 bus1=p2udt894lv.1.2 bus2=p2ulv10054.1.2 switch=n enabled=y phases=2 Linecode=1P_UG_AL_1/0_Brenau_0_416_0_2_2_2_2

New Line.l(r:p2udt894lv-p2ulv13620) Units=km Length=0.022795 bus1=p2udt894lv.1.2 bus2=p2ulv13620.1.2 switch=n enabled=y phases=2 Linecode=1P_UG_AL_1/0_Brenau_0_416_0_2_2_2_2

New Line.l(r:p2udt894lv-p2ulv15646) Units=km Length=0.026751 bus1=p2udt894lv.1.2 bus2=p2ulv15646.1.2 switch=n enabled=y phases=2 Linecode=1P_UG_AL_1/0_Brenau_0_416_0_2_2_2_2

New Line.l(r:p2udt894lv-p2ulv17725) Units=km Length=0.024510200000000003 bus1=p2udt894lv.1.2 bus2=p2ulv17725.1.2 switch=n enabled=y phases=2 Linecode=1P_UG_AL_1/0_Brenau_0_416_0_2_2_2_2

New Line.l(r:p2udm3305-p2ulv11731) Units=km Length=0.0158694 bus1=p2udm3305.1.2 bus2=p2ulv11731.1.2 switch=n enabled=y phases=2 Linecode=1P_UG_AL_1/0_Brenau_0_416_0_2_2_2_2

New Line.l(r:p2udm3305-p2udt894lv) Units=km Length=0.06209710000000001 bus1=p2udt894lv.1.2 bus2=p2udm3305.1.2 switch=n enabled=y phases=2 Linecode=1P_UG_AL_1/0_Brenau_0_416_0_2_2_2_2

New Line.l(r:p2udt895lv-p2ulv3151) Units=km Length=0.0156223 bus1=p2udt895lv.1.2 bus2=p2ulv3151.1.2 switch=n enabled=y phases=2 Linecode=1P_UG_AL_1/0_Brenau_0_416_0_2_2_2_2

New Line.l(r:p2udm3311-p2ulv6548) Units=km Length=0.016227 bus1=p2udm3311.1.2 bus2=p2ulv6548.1.2 switch=n enabled=y phases=2 Linecode=1P_UG_AL_1/0_Brenau_0_416_0_2_2_2_2

New Line.l(r:p2udm3311-p2ulv23346) Units=km Length=0.0161537 bus1=p2udm3311.1.2 bus2=p2ulv23346.1.2 switch=n enabled=y phases=2 Linecode=1P_UG_AL_1/0_Brenau_0_416_0_2_2_2_2

New Line.l(r:p2udm3311-p2ulv23533) Units=km Length=0.015048 bus1=p2udm3311.1.2 bus2=p2ulv23533.1.2 switch=n enabled=y phases=2 Linecode=1P_UG_AL_1/0_Brenau_0_416_0_2_2_2_2

New Line.l(r:p2udm3311-p2udt895lv) Units=km Length=0.00984391 bus1=p2udt895lv.1.2 bus2=p2udm3311.1.2 switch=n enabled=y phases=2 Linecode=1P_UG_AL_4/0_Sweetbriar_0_416_0_2_2_2_2

New Line.l(r:p2udm3312-p2ulv19285) Units=km Length=0.0154299 bus1=p2udm3312.1.2 bus2=p2ulv19285.1.2 switch=n enabled=y phases=2 Linecode=1P_UG_AL_1/0_Brenau_0_416_0_2_2_2_2

New Line.l(r:p2udm3309-p2ulv956) Units=km Length=0.0151785 bus1=p2udm3309.1.2 bus2=p2ulv956.1.2 switch=n enabled=y phases=2 Linecode=1P_UG_AL_1/0_Brenau_0_416_0_2_2_2_2

New Line.l(r:p2udm3309-p2udm3312) Units=km Length=0.0098485 bus1=p2udm3312.1.2 bus2=p2udm3309.1.2 switch=n enabled=y phases=2 Linecode=1P_UG_AL_1/0_Brenau_0_416_0_2_2_2_2

New Line.l(r:p2udm3312-p2udt895lv) Units=km Length=0.0196835 bus1=p2udt895lv.1.2 bus2=p2udm3312.1.2 switch=n enabled=y phases=2 Linecode=1P_UG_AL_4/0_Sweetbriar_0_416_0_2_2_2_2

New Line.l(r:p2udt896lv-p2ulv958) Units=km Length=0.0173883 bus1=p2udt896lv.1.2 bus2=p2ulv958.1.2 switch=n enabled=y phases=2 Linecode=1P_OH_AL_2/0_Rucina_0_416_0_2_2_2_2

New Line.l(r:p2udt896lv-p2ulv15872) Units=km Length=0.0152952 bus1=p2udt896lv.1.2 bus2=p2ulv15872.1.2 switch=n enabled=y phases=2 Linecode=1P_OH_AL_2/0_Rucina_0_416_0_2_2_2_2
