New Line.l(r:p1rdt72lv-p1rlv74) Units=km Length=0.0265272 bus1=p1rdt72lv.1.2 bus2=p1rlv74.1.2 switch=n enabled=y phases=2 Linecode=1P_OH_AL_2/0_Rucina_0_416_0_2_2_2_2_2_2_2_2_2_2_2_2_2_2_2_2_2_2_2_2_2_2_2_2_2_2_2_2_2

New Line.l(r:p1rdt72lv-p1rlv10222) Units=km Length=0.0265272 bus1=p1rdt72lv.1.2 bus2=p1rlv10222.1.2 switch=n enabled=y phases=2 Linecode=1P_OH_AL_2/0_Rucina_0_416_0_2_2_2_2_2_2_2_2_2_2_2_2_2_2_2_2_2_2_2_2_2_2_2_2_2_2_2_2_2

New Line.l(r:p1rdt73lv-p1rlv75) Units=km Length=0.039318 bus1=p1rdt73lv.1.2 bus2=p1rlv75.1.2 switch=n enabled=y phases=2 Linecode=1P_OH_AL_4/0_Zuzara_0_416_0_2_2_2_2_2_2_2_2_2_2_2_2_2_2_2_2_2_2_2_2_2_2_2_2_2_2_2_2_2

New Line.l(r:p1rdt115lv-p1rlv118) Units=km Length=0.0217517 bus1=p1rdt115lv.1.2 bus2=p1rlv118.1.2 switch=n enabled=y phases=2 Linecode=1P_OH_AL_2/0_Rucina_0_416_0_2_2_2_2_2_2_2_2_2_2_2_2_2_2_2_2_2_2_2_2_2_2_2_2_2_2_2_2_2

New Line.l(r:p1rdt115lv-p1rlv2539) Units=km Length=0.07679 bus1=p1rdt115lv.1.2 bus2=p1rlv2539.1.2 switch=n enabled=y phases=2 Linecode=1P_OH_AL_4/0_Zuzara_0_416_0_2_2_2_2_2_2_2_2_2_2_2_2_2_2_2_2_2_2_2_2_2_2_2_2_2_2_2_2_2

New Line.l(r:p1rdt115lv-p1rlv5371) Units=km Length=0.055728400000000004 bus1=p1rdt115lv.1.2 bus2=p1rlv5371.1.2 switch=n enabled=y phases=2 Linecode=1P_OH_AL_4/0_Zuzara_0_416_0_2_2_2_2_2_2_2_2_2_2_2_2_2_2_2_2_2_2_2_2_2_2_2_2_2_2_2_2_2

New Line.l(r:p1rdt205lv-p1rlv212) Units=km Length=0.040651 bus1=p1rdt205lv.1.2 bus2=p1rlv212.1.2 switch=n enabled=y phases=2 Linecode=1P_UG_AL_1/0_Brenau_0_416_0_2_2_2_2_2_2_2_2_2_2_2_2_2_2_2_2_2_2_2_2_2_2_2_2_2_2_2_2_2

New Line.l(r:p1rdt205lv-p1rlv2221) Units=km Length=0.0891415 bus1=p1rdt205lv.1.2 bus2=p1rlv2221.1.2 switch=n enabled=y phases=2 Linecode=1P_UG_AL_1/0_Brenau_0_416_0_2_2_2_2_2_2_2_2_2_2_2_2_2_2_2_2_2_2_2_2_2_2_2_2_2_2_2_2_2

New Line.l(r:p1rdt206lv-p1rlv213) Units=km Length=0.0335509 bus1=p1rdt206lv.1.2 bus2=p1rlv213.1.2 switch=n enabled=y phases=2 Linecode=1P_OH_AL_4/0_Zuzara_0_416_0_2_2_2_2_2_2_2_2_2_2_2_2_2_2_2_2_2_2_2_2_2_2_2_2_2_2_2_2_2

New Line.l(r:p1rdt206lv-p1rlv4375) Units=km Length=0.0360298 bus1=p1rdt206lv.1.2 bus2=p1rlv4375.1.2 switch=n enabled=y phases=2 Linecode=1P_OH_AL_4/0_Zuzara_0_416_0_2_2_2_2_2_2_2_2_2_2_2_2_2_2_2_2_2_2_2_2_2_2_2_2_2_2_2_2_2

New Line.l(r:p1rdt206lv-p1rlv7966) Units=km Length=0.0180637 bus1=p1rdt206lv.1.2 bus2=p1rlv7966.1.2 switch=n enabled=y phases=2 Linecode=1P_OH_AL_2/0_Rucina_0_416_0_2_2_2_2_2_2_2_2_2_2_2_2_2_2_2_2_2_2_2_2_2_2_2_2_2_2_2_2_2

New Line.l(r:p1rdt206lv-p1rlv11319) Units=km Length=0.0128819 bus1=p1rdt206lv.1.2 bus2=p1rlv11319.1.2 switch=n enabled=y phases=2 Linecode=1P_OH_AL_2/0_Rucina_0_416_0_2_2_2_2_2_2_2_2_2_2_2_2_2_2_2_2_2_2_2_2_2_2_2_2_2_2_2_2_2

New Line.l(r:p1rdt207lv-p1rlv214) Units=km Length=0.021899600000000005 bus1=p1rdt207lv.1.2 bus2=p1rlv214.1.2 switch=n enabled=y phases=2 Linecode=1P_OH_AL_2/0_Rucina_0_416_0_2_2_2_2_2_2_2_2_2_2_2_2_2_2_2_2_2_2_2_2_2_2_2_2_2_2_2_2_2

New Line.l(r:p1rdm605-p1rlv258) Units=km Length=0.0038647800000000004 bus1=p1rdm605.1.2 bus2=p1rlv258.1.2 switch=n enabled=y phases=2 Linecode=1P_OH_AL_4_Periwinkle_0_416_0_2_2_2_2_2_2_2_2_2_2_2_2_2_2_2_2_2_2_2_2_2_2_2_2_2_2_2_2_2

New Line.l(r:p1rdm605-p1rdt251lv) Units=km Length=0.014857500000000001 bus1=p1rdt251lv.1.2 bus2=p1rdm605.1.2 switch=n enabled=y phases=2 Linecode=1P_OH_AL_2/0_Rucina_0_416_0_2_2_2_2_2_2_2_2_2_2_2_2_2_2_2_2_2_2_2_2_2_2_2_2_2_2_2_2_2

New Line.l(r:p1rdm606-p1rlv10402) Units=km Length=0.0128306 bus1=p1rdm606.1.2 bus2=p1rlv10402.1.2 switch=n enabled=y phases=2 Linecode=1P_OH_AL_2/0_Rucina_0_416_0_2_2_2_2_2_2_2_2_2_2_2_2_2_2_2_2_2_2_2_2_2_2_2_2_2_2_2_2_2

New Line.l(r:p1rdm606-p1rdt251lv) Units=km Length=0.08202890000000002 bus1=p1rdt251lv.1.2 bus2=p1rdm606.1.2 switch=n enabled=y phases=2 Linecode=1P_OH_AL_4/0_Zuzara_0_416_0_2_2_2_2_2_2_2_2_2_2_2_2_2_2_2_2_2_2_2_2_2_2_2_2_2_2_2_2_2

New Line.l(r:p1rdt335lv-p1rlv344) Units=km Length=0.0415063 bus1=p1rdt335lv.1.2 bus2=p1rlv344.1.2 switch=n enabled=y phases=2 Linecode=1P_OH_AL_4/0_Zuzara_0_416_0_2_2_2_2_2_2_2_2_2_2_2_2_2_2_2_2_2_2_2_2_2_2_2_2_2_2_2_2_2

New Line.l(r:p1rdt335lv-p1rlv1958) Units=km Length=0.0250261 bus1=p1rdt335lv.1.2 bus2=p1rlv1958.1.2 switch=n enabled=y phases=2 Linecode=1P_OH_AL_2/0_Rucina_0_416_0_2_2_2_2_2_2_2_2_2_2_2_2_2_2_2_2_2_2_2_2_2_2_2_2_2_2_2_2_2

New Line.l(r:p1rdt335lv-p1rlv10906) Units=km Length=0.0391484 bus1=p1rdt335lv.1.2 bus2=p1rlv10906.1.2 switch=n enabled=y phases=2 Linecode=1P_OH_AL_4/0_Zuzara_0_416_0_2_2_2_2_2_2_2_2_2_2_2_2_2_2_2_2_2_2_2_2_2_2_2_2_2_2_2_2_2

New Line.l(r:p1rdt335lv-p1rlv12448) Units=km Length=0.0869069 bus1=p1rdt335lv.1.2 bus2=p1rlv12448.1.2 switch=n enabled=y phases=2 Linecode=1P_OH_AL_4/0_Zuzara_0_416_0_2_2_2_2_2_2_2_2_2_2_2_2_2_2_2_2_2_2_2_2_2_2_2_2_2_2_2_2_2

New Line.l(r:p1rdt335lv-p1rlv12678) Units=km Length=0.04176 bus1=p1rdt335lv.1.2 bus2=p1rlv12678.1.2 switch=n enabled=y phases=2 Linecode=1P_OH_AL_4/0_Zuzara_0_416_0_2_2_2_2_2_2_2_2_2_2_2_2_2_2_2_2_2_2_2_2_2_2_2_2_2_2_2_2_2

New Line.l(r:p1rdt335lv-p1rlv12812) Units=km Length=0.0409626 bus1=p1rdt335lv.1.2 bus2=p1rlv12812.1.2 switch=n enabled=y phases=2 Linecode=1P_OH_AL_4/0_Zuzara_0_416_0_2_2_2_2_2_2_2_2_2_2_2_2_2_2_2_2_2_2_2_2_2_2_2_2_2_2_2_2_2

New Line.l(r:p1rdt335lv-p1rlv13082) Units=km Length=0.00805821 bus1=p1rdt335lv.1.2 bus2=p1rlv13082.1.2 switch=n enabled=y phases=2 Linecode=1P_OH_AL_2/0_Rucina_0_416_0_2_2_2_2_2_2_2_2_2_2_2_2_2_2_2_2_2_2_2_2_2_2_2_2_2_2_2_2_2

New Line.l(r:p1rdt336lv-p1rlv345) Units=km Length=0.001 bus1=p1rdt336lv.1.2 bus2=p1rlv345.1.2 switch=n enabled=y phases=2 Linecode=1P_OH_AL_4_Periwinkle_0_416_0_2_2_2_2_2_2_2_2_2_2_2_2_2_2_2_2_2_2_2_2_2_2_2_2_2_2_2_2_2

New Line.l(r:p1rdt337lv-p1rlv346) Units=km Length=0.0235255 bus1=p1rdt337lv.1.2 bus2=p1rlv346.1.2 switch=n enabled=y phases=2 Linecode=1P_UG_AL_2/0_Converse_0_416_0_2_2_2_2_2_2_2_2_2_2_2_2_2_2_2_2_2_2_2_2_2_2_2_2_2_2_2_2_2

New Line.l(r:p1rdm804-p1rlv347) Units=km Length=0.0210256 bus1=p1rdm804.1.2 bus2=p1rlv347.1.2 switch=n enabled=y phases=2 Linecode=1P_OH_AL_2/0_Rucina_0_416_0_2_2_2_2_2_2_2_2_2_2_2_2_2_2_2_2_2_2_2_2_2_2_2_2_2_2_2_2_2

New Line.l(r:p1rdm804-p1rdt338lv) Units=km Length=0.0122338 bus1=p1rdt338lv.1.2 bus2=p1rdm804.1.2 switch=n enabled=y phases=2 Linecode=1P_OH_AL_2/0_Rucina_0_416_0_2_2_2_2_2_2_2_2_2_2_2_2_2_2_2_2_2_2_2_2_2_2_2_2_2_2_2_2_2

New Line.l(r:p1rdm805-p1rlv8481) Units=km Length=0.018588300000000002 bus1=p1rdm805.1.2 bus2=p1rlv8481.1.2 switch=n enabled=y phases=2 Linecode=1P_OH_AL_2/0_Rucina_0_416_0_2_2_2_2_2_2_2_2_2_2_2_2_2_2_2_2_2_2_2_2_2_2_2_2_2_2_2_2_2

New Line.l(r:p1rdm805-p1rdt338lv) Units=km Length=0.0122338 bus1=p1rdt338lv.1.2 bus2=p1rdm805.1.2 switch=n enabled=y phases=2 Linecode=1P_OH_AL_2/0_Rucina_0_416_0_2_2_2_2_2_2_2_2_2_2_2_2_2_2_2_2_2_2_2_2_2_2_2_2_2_2_2_2_2

New Line.l(r:p1rdt455lv-p1rlv465) Units=km Length=0.0291243 bus1=p1rdt455lv.1.2 bus2=p1rlv465.1.2 switch=n enabled=y phases=2 Linecode=1P_OH_AL_4/0_Zuzara_0_416_0_2_2_2_2_2_2_2_2_2_2_2_2_2_2_2_2_2_2_2_2_2_2_2_2_2_2_2_2_2

New Line.l(r:p1rdt455lv-p1rlv8889) Units=km Length=0.0291243 bus1=p1rdt455lv.1.2 bus2=p1rlv8889.1.2 switch=n enabled=y phases=2 Linecode=1P_OH_AL_4/0_Zuzara_0_416_0_2_2_2_2_2_2_2_2_2_2_2_2_2_2_2_2_2_2_2_2_2_2_2_2_2_2_2_2_2

New Line.l(r:p1rdt456lv-p1rlv466) Units=km Length=0.0737636 bus1=p1rdt456lv.1.2 bus2=p1rlv466.1.2 switch=n enabled=y phases=2 Linecode=1P_OH_AL_4/0_Zuzara_0_416_0_2_2_2_2_2_2_2_2_2_2_2_2_2_2_2_2_2_2_2_2_2_2_2_2_2_2_2_2_2

New Line.l(r:p1rdt458lv-p1rlv468) Units=km Length=0.001 bus1=p1rdt458lv.1.2 bus2=p1rlv468.1.2 switch=n enabled=y phases=2 Linecode=1P_OH_AL_4_Periwinkle_0_416_0_2_2_2_2_2_2_2_2_2_2_2_2_2_2_2_2_2_2_2_2_2_2_2_2_2_2_2_2_2

New Line.l(r:p1rdt459lv-p1rlv469) Units=km Length=0.0804238 bus1=p1rdt459lv.1.2 bus2=p1rlv469.1.2 switch=n enabled=y phases=2 Linecode=1P_OH_AL_4/0_Zuzara_0_416_0_2_2_2_2_2_2_2_2_2_2_2_2_2_2_2_2_2_2_2_2_2_2_2_2_2_2_2_2_2

New Line.l(r:p1rdt460lv-p1rlv3152) Units=km Length=0.0185628 bus1=p1rdt460lv.1.2 bus2=p1rlv3152.1.2 switch=n enabled=y phases=2 Linecode=1P_OH_AL_2/0_Rucina_0_416_0_2_2_2_2_2_2_2_2_2_2_2_2_2_2_2_2_2_2_2_2_2_2_2_2_2_2_2_2_2

New Line.l(r:p1rdm1090-p1rlv470) Units=km Length=0.0142885 bus1=p1rdm1090.1.2 bus2=p1rlv470.1.2 switch=n enabled=y phases=2 Linecode=1P_OH_AL_2/0_Rucina_0_416_0_2_2_2_2_2_2_2_2_2_2_2_2_2_2_2_2_2_2_2_2_2_2_2_2_2_2_2_2_2

New Line.l(r:p1rdm1090-p1rlv2375) Units=km Length=0.0172819 bus1=p1rdm1090.1.2 bus2=p1rlv2375.1.2 switch=n enabled=y phases=2 Linecode=1P_OH_AL_2/0_Rucina_0_416_0_2_2_2_2_2_2_2_2_2_2_2_2_2_2_2_2_2_2_2_2_2_2_2_2_2_2_2_2_2

New Line.l(r:p1rdm1090-p1rdt460lv) Units=km Length=0.015964 bus1=p1rdt460lv.1.2 bus2=p1rdm1090.1.2 switch=n enabled=y phases=2 Linecode=1P_OH_AL_2/0_Rucina_0_416_0_2_2_2_2_2_2_2_2_2_2_2_2_2_2_2_2_2_2_2_2_2_2_2_2_2_2_2_2_2

New Line.l(r:p1rdm1093-p1rlv3420) Units=km Length=0.0231236 bus1=p1rdm1093.1.2 bus2=p1rlv3420.1.2 switch=n enabled=y phases=2 Linecode=1P_OH_AL_2/0_Rucina_0_416_0_2_2_2_2_2_2_2_2_2_2_2_2_2_2_2_2_2_2_2_2_2_2_2_2_2_2_2_2_2

New Line.l(r:p1rdm1093-p1rlv11754) Units=km Length=0.04996740000000001 bus1=p1rdm1093.1.2 bus2=p1rlv11754.1.2 switch=n enabled=y phases=2 Linecode=1P_OH_AL_4/0_Zuzara_0_416_0_2_2_2_2_2_2_2_2_2_2_2_2_2_2_2_2_2_2_2_2_2_2_2_2_2_2_2_2_2

New Line.l(r:p1rdm1093-p1rdt460lv) Units=km Length=0.0159503 bus1=p1rdt460lv.1.2 bus2=p1rdm1093.1.2 switch=n enabled=y phases=2 Linecode=1P_OH_AL_2/0_Rucina_0_416_0_2_2_2_2_2_2_2_2_2_2_2_2_2_2_2_2_2_2_2_2_2_2_2_2_2_2_2_2_2

New Line.l(r:p1rdt502lv-p1rlv515) Units=km Length=0.0107267 bus1=p1rdt502lv.1.2 bus2=p1rlv515.1.2 switch=n enabled=y phases=2 Linecode=1P_OH_AL_2/0_Rucina_0_416_0_2_2_2_2_2_2_2_2_2_2_2_2_2_2_2_2_2_2_2_2_2_2_2_2_2_2_2_2_2

New Line.l(r:p1rdt502lv-p1rlv8260) Units=km Length=0.0107267 bus1=p1rdt502lv.1.2 bus2=p1rlv8260.1.2 switch=n enabled=y phases=2 Linecode=1P_OH_AL_2/0_Rucina_0_416_0_2_2_2_2_2_2_2_2_2_2_2_2_2_2_2_2_2_2_2_2_2_2_2_2_2_2_2_2_2

New Line.l(r:p1rdt503lv-p1rlv516) Units=km Length=0.06075030000000001 bus1=p1rdt503lv.1.2 bus2=p1rlv516.1.2 switch=n enabled=y phases=2 Linecode=1P_OH_AL_4/0_Zuzara_0_416_0_2_2_2_2_2_2_2_2_2_2_2_2_2_2_2_2_2_2_2_2_2_2_2_2_2_2_2_2_2

New Line.l(r:p1rdm1182-p1rlv1073) Units=km Length=0.0616796 bus1=p1rdm1182.1.2 bus2=p1rlv1073.1.2 switch=n enabled=y phases=2 Linecode=1P_OH_AL_4/0_Zuzara_0_416_0_2_2_2_2_2_2_2_2_2_2_2_2_2_2_2_2_2_2_2_2_2_2_2_2_2_2_2_2_2

New Line.l(r:p1rdm1182-p1rlv1484) Units=km Length=0.0503291 bus1=p1rdm1182.1.2 bus2=p1rlv1484.1.2 switch=n enabled=y phases=2 Linecode=1P_OH_AL_4/0_Zuzara_0_416_0_2_2_2_2_2_2_2_2_2_2_2_2_2_2_2_2_2_2_2_2_2_2_2_2_2_2_2_2_2

New Line.l(r:p1rdm1182-p1rdt503lv) Units=km Length=0.0190831 bus1=p1rdt503lv.1.2 bus2=p1rdm1182.1.2 switch=n enabled=y phases=2 Linecode=1P_OH_AL_2/0_Rucina_0_416_0_2_2_2_2_2_2_2_2_2_2_2_2_2_2_2_2_2_2_2_2_2_2_2_2_2_2_2_2_2

New Line.l(r:p1rdt587lv-p1rlv602) Units=km Length=0.0358582 bus1=p1rdt587lv.1.2 bus2=p1rlv602.1.2 switch=n enabled=y phases=2 Linecode=1P_OH_AL_4/0_Zuzara_0_416_0_2_2_2_2_2_2_2_2_2_2_2_2_2_2_2_2_2_2_2_2_2_2_2_2_2_2_2_2_2

New Line.l(r:p1rdt587lv-p1rlv6483) Units=km Length=0.0594087 bus1=p1rdt587lv.1.2 bus2=p1rlv6483.1.2 switch=n enabled=y phases=2 Linecode=1P_OH_AL_4/0_Zuzara_0_416_0_2_2_2_2_2_2_2_2_2_2_2_2_2_2_2_2_2_2_2_2_2_2_2_2_2_2_2_2_2

New Line.l(r:p1rdt587lv-p1rlv6627) Units=km Length=0.0329677 bus1=p1rdt587lv.1.2 bus2=p1rlv6627.1.2 switch=n enabled=y phases=2 Linecode=1P_OH_AL_4/0_Zuzara_0_416_0_2_2_2_2_2_2_2_2_2_2_2_2_2_2_2_2_2_2_2_2_2_2_2_2_2_2_2_2_2

New Line.l(r:p1rdt589lv-p1rlv604) Units=km Length=0.001 bus1=p1rdt589lv.1.2 bus2=p1rlv604.1.2 switch=n enabled=y phases=2 Linecode=1P_OH_AL_4_Periwinkle_0_416_0_2_2_2_2_2_2_2_2_2_2_2_2_2_2_2_2_2_2_2_2_2_2_2_2_2_2_2_2_2

New Line.l(r:p1rdt590lv-p1rlv605) Units=km Length=0.04735120000000001 bus1=p1rdt590lv.1.2 bus2=p1rlv605.1.2 switch=n enabled=y phases=2 Linecode=1P_OH_AL_4/0_Zuzara_0_416_0_2_2_2_2_2_2_2_2_2_2_2_2_2_2_2_2_2_2_2_2_2_2_2_2_2_2_2_2_2

New Line.l(r:p1rdt591lv-p1rlv606) Units=km Length=0.0275031 bus1=p1rdt591lv.1.2 bus2=p1rlv606.1.2 switch=n enabled=y phases=2 Linecode=1P_OH_AL_4/0_Zuzara_0_416_0_2_2_2_2_2_2_2_2_2_2_2_2_2_2_2_2_2_2_2_2_2_2_2_2_2_2_2_2_2

New Line.l(r:p1rdt636lv-p1rlv657) Units=km Length=0.001 bus1=p1rdt636lv.1.2 bus2=p1rlv657.1.2 switch=n enabled=y phases=2 Linecode=1P_OH_AL_4_Periwinkle_0_416_0_2_2_2_2_2_2_2_2_2_2_2_2_2_2_2_2_2_2_2_2_2_2_2_2_2_2_2_2_2

New Line.l(r:p1rdt638lv-p1rlv659) Units=km Length=0.001 bus1=p1rdt638lv.1.2 bus2=p1rlv659.1.2 switch=n enabled=y phases=2 Linecode=1P_OH_AL_4_Periwinkle_0_416_0_2_2_2_2_2_2_2_2_2_2_2_2_2_2_2_2_2_2_2_2_2_2_2_2_2_2_2_2_2

New Line.l(r:p1rdt725lv-p1rlv757) Units=km Length=0.0466989 bus1=p1rdt725lv.1.2 bus2=p1rlv757.1.2 switch=n enabled=y phases=2 Linecode=1P_OH_AL_4/0_Zuzara_0_416_0_2_2_2_2_2_2_2_2_2_2_2_2_2_2_2_2_2_2_2_2_2_2_2_2_2_2_2_2_2

New Line.l(r:p1rdt725lv-p1rlv7153) Units=km Length=0.0466989 bus1=p1rdt725lv.1.2 bus2=p1rlv7153.1.2 switch=n enabled=y phases=2 Linecode=1P_OH_AL_4/0_Zuzara_0_416_0_2_2_2_2_2_2_2_2_2_2_2_2_2_2_2_2_2_2_2_2_2_2_2_2_2_2_2_2_2

New Line.l(r:p1rdt727lv-p1rlv759) Units=km Length=0.034265 bus1=p1rdt727lv.1.2 bus2=p1rlv759.1.2 switch=n enabled=y phases=2 Linecode=1P_OH_AL_4/0_Zuzara_0_416_0_2_2_2_2_2_2_2_2_2_2_2_2_2_2_2_2_2_2_2_2_2_2_2_2_2_2_2_2_2

New Line.l(r:p1rdt727lv-p1rlv1959) Units=km Length=0.00817873 bus1=p1rdt727lv.1.2 bus2=p1rlv1959.1.2 switch=n enabled=y phases=2 Linecode=1P_OH_AL_2/0_Rucina_0_416_0_2_2_2_2_2_2_2_2_2_2_2_2_2_2_2_2_2_2_2_2_2_2_2_2_2_2_2_2_2

New Line.l(r:p1rdt727lv-p1rlv11597) Units=km Length=0.0332333 bus1=p1rdt727lv.1.2 bus2=p1rlv11597.1.2 switch=n enabled=y phases=2 Linecode=1P_OH_AL_4/0_Zuzara_0_416_0_2_2_2_2_2_2_2_2_2_2_2_2_2_2_2_2_2_2_2_2_2_2_2_2_2_2_2_2_2

New Line.l(r:p1rdt728lv-p1rlv760) Units=km Length=0.0155743 bus1=p1rdt728lv.1.2 bus2=p1rlv760.1.2 switch=n enabled=y phases=2 Linecode=1P_OH_AL_2/0_Rucina_0_416_0_2_2_2_2_2_2_2_2_2_2_2_2_2_2_2_2_2_2_2_2_2_2_2_2_2_2_2_2_2

New Line.l(r:p1rdt729lv-p1rlv761) Units=km Length=0.0478961 bus1=p1rdt729lv.1.2 bus2=p1rlv761.1.2 switch=n enabled=y phases=2 Linecode=1P_OH_AL_4/0_Zuzara_0_416_0_2_2_2_2_2_2_2_2_2_2_2_2_2_2_2_2_2_2_2_2_2_2_2_2_2_2_2_2_2

New Line.l(r:p1rdt854lv-p1rlv896) Units=km Length=0.030491600000000004 bus1=p1rdt854lv.1.2 bus2=p1rlv896.1.2 switch=n enabled=y phases=2 Linecode=1P_OH_AL_4/0_Zuzara_0_416_0_2_2_2_2_2_2_2_2_2_2_2_2_2_2_2_2_2_2_2_2_2_2_2_2_2_2_2_2_2

New Line.l(r:p1rdt854lv-p1rlv12020) Units=km Length=0.030491600000000004 bus1=p1rdt854lv.1.2 bus2=p1rlv12020.1.2 switch=n enabled=y phases=2 Linecode=1P_OH_AL_4/0_Zuzara_0_416_0_2_2_2_2_2_2_2_2_2_2_2_2_2_2_2_2_2_2_2_2_2_2_2_2_2_2_2_2_2

New Line.l(r:p1rdt855lv-p1rlv897) Units=km Length=0.07018170000000001 bus1=p1rdt855lv.1.2 bus2=p1rlv897.1.2 switch=n enabled=y phases=2 Linecode=1P_OH_AL_4/0_Zuzara_0_416_0_2_2_2_2_2_2_2_2_2_2_2_2_2_2_2_2_2_2_2_2_2_2_2_2_2_2_2_2_2

New Line.l(r:p1rdt855lv-p1rlv13086) Units=km Length=0.01493 bus1=p1rdt855lv.1.2 bus2=p1rlv13086.1.2 switch=n enabled=y phases=2 Linecode=1P_OH_AL_2/0_Rucina_0_416_0_2_2_2_2_2_2_2_2_2_2_2_2_2_2_2_2_2_2_2_2_2_2_2_2_2_2_2_2_2

New Line.l(r:p1rdt856lv-p1rlv6749) Units=km Length=0.122962 bus1=p1rdt856lv.1.2 bus2=p1rlv6749.1.2 switch=n enabled=y phases=2 Linecode=1P_OH_AL_4/0_Zuzara_0_416_0_2_2_2_2_2_2_2_2_2_2_2_2_2_2_2_2_2_2_2_2_2_2_2_2_2_2_2_2_2

New Line.l(r:p1rdt856lv-p1rlv11456) Units=km Length=0.075994 bus1=p1rdt856lv.1.2 bus2=p1rlv11456.1.2 switch=n enabled=y phases=2 Linecode=1P_OH_AL_4/0_Zuzara_0_416_0_2_2_2_2_2_2_2_2_2_2_2_2_2_2_2_2_2_2_2_2_2_2_2_2_2_2_2_2_2

New Line.l(r:p1rdm1952-p1rlv898) Units=km Length=0.0333552 bus1=p1rdm1952.1.2 bus2=p1rlv898.1.2 switch=n enabled=y phases=2 Linecode=1P_OH_AL_4/0_Zuzara_0_416_0_2_2_2_2_2_2_2_2_2_2_2_2_2_2_2_2_2_2_2_2_2_2_2_2_2_2_2_2_2

New Line.l(r:p1rdm1952-p1rdt856lv) Units=km Length=0.0413542 bus1=p1rdt856lv.1.2 bus2=p1rdm1952.1.2 switch=n enabled=y phases=2 Linecode=1P_OH_AL_4/0_Zuzara_0_416_0_2_2_2_2_2_2_2_2_2_2_2_2_2_2_2_2_2_2_2_2_2_2_2_2_2_2_2_2_2

New Line.l(r:p1rdt857lv-p1rlv899) Units=km Length=0.0464914 bus1=p1rdt857lv.1.2 bus2=p1rlv899.1.2 switch=n enabled=y phases=2 Linecode=1P_OH_AL_4/0_Zuzara_0_416_0_2_2_2_2_2_2_2_2_2_2_2_2_2_2_2_2_2_2_2_2_2_2_2_2_2_2_2_2_2

New Line.l(r:p1rdt857lv-p1rlv3843) Units=km Length=0.0635436 bus1=p1rdt857lv.1.2 bus2=p1rlv3843.1.2 switch=n enabled=y phases=2 Linecode=1P_OH_AL_4/0_Zuzara_0_416_0_2_2_2_2_2_2_2_2_2_2_2_2_2_2_2_2_2_2_2_2_2_2_2_2_2_2_2_2_2

New Line.l(r:p1rdm1956-p1rlv1032) Units=km Length=0.0335667 bus1=p1rdm1956.1.2 bus2=p1rlv1032.1.2 switch=n enabled=y phases=2 Linecode=1P_OH_AL_4/0_Zuzara_0_416_0_2_2_2_2_2_2_2_2_2_2_2_2_2_2_2_2_2_2_2_2_2_2_2_2_2_2_2_2_2

New Line.l(r:p1rdm1956-p1rdt857lv) Units=km Length=0.0195891 bus1=p1rdt857lv.1.2 bus2=p1rdm1956.1.2 switch=n enabled=y phases=2 Linecode=1P_OH_AL_2/0_Rucina_0_416_0_2_2_2_2_2_2_2_2_2_2_2_2_2_2_2_2_2_2_2_2_2_2_2_2_2_2_2_2_2

New Line.l(r:p1rdt905lv-p1rlv951) Units=km Length=0.115357 bus1=p1rdt905lv.1.2 bus2=p1rlv951.1.2 switch=n enabled=y phases=2 Linecode=1P_OH_AL_4/0_Zuzara_0_416_0_2_2_2_2_2_2_2_2_2_2_2_2_2_2_2_2_2_2_2_2_2_2_2_2_2_2_2_2_2

New Line.l(r:p1rdt905lv-p1rlv12343) Units=km Length=0.0555818 bus1=p1rdt905lv.1.2 bus2=p1rlv12343.1.2 switch=n enabled=y phases=2 Linecode=1P_OH_AL_4/0_Zuzara_0_416_0_2_2_2_2_2_2_2_2_2_2_2_2_2_2_2_2_2_2_2_2_2_2_2_2_2_2_2_2_2

New Line.l(r:p1rdm2055-p1rlv12491) Units=km Length=0.0449442 bus1=p1rdm2055.1.2 bus2=p1rlv12491.1.2 switch=n enabled=y phases=2 Linecode=1P_OH_AL_4/0_Zuzara_0_416_0_2_2_2_2_2_2_2_2_2_2_2_2_2_2_2_2_2_2_2_2_2_2_2_2_2_2_2_2_2

New Line.l(r:p1rdm2055-p1rlv12992) Units=km Length=0.0558389 bus1=p1rdm2055.1.2 bus2=p1rlv12992.1.2 switch=n enabled=y phases=2 Linecode=1P_OH_AL_4/0_Zuzara_0_416_0_2_2_2_2_2_2_2_2_2_2_2_2_2_2_2_2_2_2_2_2_2_2_2_2_2_2_2_2_2

New Line.l(r:p1rdm2055-p1rdt905lv) Units=km Length=0.019547800000000004 bus1=p1rdt905lv.1.2 bus2=p1rdm2055.1.2 switch=n enabled=y phases=2 Linecode=1P_OH_AL_2/0_Rucina_0_416_0_2_2_2_2_2_2_2_2_2_2_2_2_2_2_2_2_2_2_2_2_2_2_2_2_2_2_2_2_2

New Line.l(r:p1rdt977lv-p1rlv1029) Units=km Length=0.095297 bus1=p1rdt977lv.1.2 bus2=p1rlv1029.1.2 switch=n enabled=y phases=2 Linecode=1P_OH_AL_4/0_Zuzara_0_416_0_2_2_2_2_2_2_2_2_2_2_2_2_2_2_2_2_2_2_2_2_2_2_2_2_2_2_2_2_2

New Line.l(r:p1rdm2211-p1rlv1030) Units=km Length=0.0464088 bus1=p1rdm2211.1.2 bus2=p1rlv1030.1.2 switch=n enabled=y phases=2 Linecode=1P_OH_AL_4/0_Zuzara_0_416_0_2_2_2_2_2_2_2_2_2_2_2_2_2_2_2_2_2_2_2_2_2_2_2_2_2_2_2_2_2

New Line.l(r:p1rdm2211-p1rdt978lv) Units=km Length=0.0198163 bus1=p1rdt978lv.1.2 bus2=p1rdm2211.1.2 switch=n enabled=y phases=2 Linecode=1P_OH_AL_2/0_Rucina_0_416_0_2_2_2_2_2_2_2_2_2_2_2_2_2_2_2_2_2_2_2_2_2_2_2_2_2_2_2_2_2

New Line.l(r:p1rdm2212-p1rlv4095) Units=km Length=0.0379311 bus1=p1rdm2212.1.2 bus2=p1rlv4095.1.2 switch=n enabled=y phases=2 Linecode=1P_OH_AL_4/0_Zuzara_0_416_0_2_2_2_2_2_2_2_2_2_2_2_2_2_2_2_2_2_2_2_2_2_2_2_2_2_2_2_2_2

New Line.l(r:p1rdm2212-p1rdt978lv) Units=km Length=0.0198163 bus1=p1rdt978lv.1.2 bus2=p1rdm2212.1.2 switch=n enabled=y phases=2 Linecode=1P_OH_AL_2/0_Rucina_0_416_0_2_2_2_2_2_2_2_2_2_2_2_2_2_2_2_2_2_2_2_2_2_2_2_2_2_2_2_2_2

New Line.l(r:p1rdt979lv-p1rlv1031) Units=km Length=0.0344488 bus1=p1rdt979lv.1.2 bus2=p1rlv1031.1.2 switch=n enabled=y phases=2 Linecode=1P_OH_AL_4/0_Zuzara_0_416_0_2_2_2_2_2_2_2_2_2_2_2_2_2_2_2_2_2_2_2_2_2_2_2_2_2_2_2_2_2

New Line.l(r:p1rdt979lv-p1rlv11602) Units=km Length=0.0392438 bus1=p1rdt979lv.1.2 bus2=p1rlv11602.1.2 switch=n enabled=y phases=2 Linecode=1P_OH_AL_4/0_Zuzara_0_416_0_2_2_2_2_2_2_2_2_2_2_2_2_2_2_2_2_2_2_2_2_2_2_2_2_2_2_2_2_2

New Line.l(r:p1rdt1005lv-p1rlv1058) Units=km Length=0.0233343 bus1=p1rdt1005lv.1.2 bus2=p1rlv1058.1.2 switch=n enabled=y phases=2 Linecode=1P_OH_AL_2/0_Rucina_0_416_0_2_2_2_2_2_2_2_2_2_2_2_2_2_2_2_2_2_2_2_2_2_2_2_2_2_2_2_2_2

New Line.l(r:p1rdt1005lv-p1rlv1585) Units=km Length=0.0233343 bus1=p1rdt1005lv.1.2 bus2=p1rlv1585.1.2 switch=n enabled=y phases=2 Linecode=1P_OH_AL_2/0_Rucina_0_416_0_2_2_2_2_2_2_2_2_2_2_2_2_2_2_2_2_2_2_2_2_2_2_2_2_2_2_2_2_2

New Line.l(r:p1rdt1097lv-p1rlv1159) Units=km Length=0.0302803 bus1=p1rdt1097lv.1.2 bus2=p1rlv1159.1.2 switch=n enabled=y phases=2 Linecode=1P_OH_AL_4/0_Zuzara_0_416_0_2_2_2_2_2_2_2_2_2_2_2_2_2_2_2_2_2_2_2_2_2_2_2_2_2_2_2_2_2

New Line.l(r:p1rdt1098lv-p1rlv1160) Units=km Length=0.0256915 bus1=p1rdt1098lv.1.2 bus2=p1rlv1160.1.2 switch=n enabled=y phases=2 Linecode=1P_OH_AL_2/0_Rucina_0_416_0_2_2_2_2_2_2_2_2_2_2_2_2_2_2_2_2_2_2_2_2_2_2_2_2_2_2_2_2_2

New Line.l(r:p1rdt1098lv-p1rlv1683) Units=km Length=0.0256915 bus1=p1rdt1098lv.1.2 bus2=p1rlv1683.1.2 switch=n enabled=y phases=2 Linecode=1P_OH_AL_2/0_Rucina_0_416_0_2_2_2_2_2_2_2_2_2_2_2_2_2_2_2_2_2_2_2_2_2_2_2_2_2_2_2_2_2

New Line.l(r:p1rdt1099lv-p1rlv6484) Units=km Length=0.0340373 bus1=p1rdt1099lv.1.2 bus2=p1rlv6484.1.2 switch=n enabled=y phases=2 Linecode=1P_OH_AL_4/0_Zuzara_0_416_0_2_2_2_2_2_2_2_2_2_2_2_2_2_2_2_2_2_2_2_2_2_2_2_2_2_2_2_2_2

New Line.l(r:p1rdm2456-p1rlv1161) Units=km Length=0.0636615 bus1=p1rdm2456.1.2 bus2=p1rlv1161.1.2 switch=n enabled=y phases=2 Linecode=1P_OH_AL_4/0_Zuzara_0_416_0_2_2_2_2_2_2_2_2_2_2_2_2_2_2_2_2_2_2_2_2_2_2_2_2_2_2_2_2_2

New Line.l(r:p1rdm2456-p1rdt1099lv) Units=km Length=0.0193847 bus1=p1rdt1099lv.1.2 bus2=p1rdm2456.1.2 switch=n enabled=y phases=2 Linecode=1P_OH_AL_2/0_Rucina_0_416_0_2_2_2_2_2_2_2_2_2_2_2_2_2_2_2_2_2_2_2_2_2_2_2_2_2_2_2_2_2

New Line.l(r:p1rdt1199lv-p1rlv1276) Units=km Length=0.0525973 bus1=p1rdt1199lv.1.2 bus2=p1rlv1276.1.2 switch=n enabled=y phases=2 Linecode=1P_OH_AL_4/0_Zuzara_0_416_0_2_2_2_2_2_2_2_2_2_2_2_2_2_2_2_2_2_2_2_2_2_2_2_2_2_2_2_2_2

New Line.l(r:p1rdt1199lv-p1rlv9830) Units=km Length=0.0678782 bus1=p1rdt1199lv.1.2 bus2=p1rlv9830.1.2 switch=n enabled=y phases=2 Linecode=1P_OH_AL_4/0_Zuzara_0_416_0_2_2_2_2_2_2_2_2_2_2_2_2_2_2_2_2_2_2_2_2_2_2_2_2_2_2_2_2_2

New Line.l(r:p1rdt1199lv-p1rlv12021) Units=km Length=0.0411887 bus1=p1rdt1199lv.1.2 bus2=p1rlv12021.1.2 switch=n enabled=y phases=2 Linecode=1P_OH_AL_4/0_Zuzara_0_416_0_2_2_2_2_2_2_2_2_2_2_2_2_2_2_2_2_2_2_2_2_2_2_2_2_2_2_2_2_2

New Line.l(r:p1rdt1201lv-p1rlv2502) Units=km Length=0.0438311 bus1=p1rdt1201lv.1.2 bus2=p1rlv2502.1.2 switch=n enabled=y phases=2 Linecode=1P_OH_AL_4/0_Zuzara_0_416_0_2_2_2_2_2_2_2_2_2_2_2_2_2_2_2_2_2_2_2_2_2_2_2_2_2_2_2_2_2

New Line.l(r:p1rdm2669-p1rlv1278) Units=km Length=0.0507996 bus1=p1rdm2669.1.2 bus2=p1rlv1278.1.2 switch=n enabled=y phases=2 Linecode=1P_OH_AL_4/0_Zuzara_0_416_0_2_2_2_2_2_2_2_2_2_2_2_2_2_2_2_2_2_2_2_2_2_2_2_2_2_2_2_2_2

New Line.l(r:p1rdm2669-p1rdt1201lv) Units=km Length=0.0192866 bus1=p1rdt1201lv.1.2 bus2=p1rdm2669.1.2 switch=n enabled=y phases=2 Linecode=1P_OH_AL_2/0_Rucina_0_416_0_2_2_2_2_2_2_2_2_2_2_2_2_2_2_2_2_2_2_2_2_2_2_2_2_2_2_2_2_2

New Line.l(r:p1rdt1247lv-p1rlv1327) Units=km Length=0.0529496 bus1=p1rdt1247lv.1.2 bus2=p1rlv1327.1.2 switch=n enabled=y phases=2 Linecode=1P_OH_AL_4/0_Zuzara_0_416_0_2_2_2_2_2_2_2_2_2_2_2_2_2_2_2_2_2_2_2_2_2_2_2_2_2_2_2_2_2

New Line.l(r:p1rdt1247lv-p1rlv3064) Units=km Length=0.0397061 bus1=p1rdt1247lv.1.2 bus2=p1rlv3064.1.2 switch=n enabled=y phases=2 Linecode=1P_OH_AL_4/0_Zuzara_0_416_0_2_2_2_2_2_2_2_2_2_2_2_2_2_2_2_2_2_2_2_2_2_2_2_2_2_2_2_2_2

New Line.l(r:p1rdt1247lv-p1rlv5373) Units=km Length=0.0412393 bus1=p1rdt1247lv.1.2 bus2=p1rlv5373.1.2 switch=n enabled=y phases=2 Linecode=1P_OH_AL_4/0_Zuzara_0_416_0_2_2_2_2_2_2_2_2_2_2_2_2_2_2_2_2_2_2_2_2_2_2_2_2_2_2_2_2_2

New Line.l(r:p1rdt1247lv-p1rlv6178) Units=km Length=0.0120705 bus1=p1rdt1247lv.1.2 bus2=p1rlv6178.1.2 switch=n enabled=y phases=2 Linecode=1P_OH_AL_2/0_Rucina_0_416_0_2_2_2_2_2_2_2_2_2_2_2_2_2_2_2_2_2_2_2_2_2_2_2_2_2_2_2_2_2

New Line.l(r:p1rdt1247lv-p1rlv6533) Units=km Length=0.0615226 bus1=p1rdt1247lv.1.2 bus2=p1rlv6533.1.2 switch=n enabled=y phases=2 Linecode=1P_OH_AL_4/0_Zuzara_0_416_0_2_2_2_2_2_2_2_2_2_2_2_2_2_2_2_2_2_2_2_2_2_2_2_2_2_2_2_2_2

New Line.l(r:p1rdt1247lv-p1rlv6802) Units=km Length=0.015590100000000003 bus1=p1rdt1247lv.1.2 bus2=p1rlv6802.1.2 switch=n enabled=y phases=2 Linecode=1P_OH_AL_2/0_Rucina_0_416_0_2_2_2_2_2_2_2_2_2_2_2_2_2_2_2_2_2_2_2_2_2_2_2_2_2_2_2_2_2

New Line.l(r:p1rdt1248lv-p1rlv1328) Units=km Length=0.0257215 bus1=p1rdt1248lv.1.2 bus2=p1rlv1328.1.2 switch=n enabled=y phases=2 Linecode=1P_OH_AL_2/0_Rucina_0_416_0_2_2_2_2_2_2_2_2_2_2_2_2_2_2_2_2_2_2_2_2_2_2_2_2_2_2_2_2_2

New Line.l(r:p1rdt1248lv-p1rlv4564) Units=km Length=0.0390477 bus1=p1rdt1248lv.1.2 bus2=p1rlv4564.1.2 switch=n enabled=y phases=2 Linecode=1P_OH_AL_4/0_Zuzara_0_416_0_2_2_2_2_2_2_2_2_2_2_2_2_2_2_2_2_2_2_2_2_2_2_2_2_2_2_2_2_2

New Line.l(r:p1rdt1248lv-p1rlv4859) Units=km Length=0.0133479 bus1=p1rdt1248lv.1.2 bus2=p1rlv4859.1.2 switch=n enabled=y phases=2 Linecode=1P_OH_AL_2/0_Rucina_0_416_0_2_2_2_2_2_2_2_2_2_2_2_2_2_2_2_2_2_2_2_2_2_2_2_2_2_2_2_2_2

New Line.l(r:p1rdt1249lv-p1rlv1329) Units=km Length=0.09610830000000001 bus1=p1rdt1249lv.1.2 bus2=p1rlv1329.1.2 switch=n enabled=y phases=2 Linecode=1P_OH_AL_4/0_Zuzara_0_416_0_2_2_2_2_2_2_2_2_2_2_2_2_2_2_2_2_2_2_2_2_2_2_2_2_2_2_2_2_2

New Line.l(r:p1rdt1249lv-p1rlv5115) Units=km Length=0.0495307 bus1=p1rdt1249lv.1.2 bus2=p1rlv5115.1.2 switch=n enabled=y phases=2 Linecode=1P_OH_AL_4/0_Zuzara_0_416_0_2_2_2_2_2_2_2_2_2_2_2_2_2_2_2_2_2_2_2_2_2_2_2_2_2_2_2_2_2

New Line.l(r:p1rdt1249lv-p1rlv10133) Units=km Length=0.0558831 bus1=p1rdt1249lv.1.2 bus2=p1rlv10133.1.2 switch=n enabled=y phases=2 Linecode=1P_OH_AL_4/0_Zuzara_0_416_0_2_2_2_2_2_2_2_2_2_2_2_2_2_2_2_2_2_2_2_2_2_2_2_2_2_2_2_2_2

New Line.l(r:p1rdt1337lv-p1rlv1434) Units=km Length=0.0832515 bus1=p1rdt1337lv.1.2 bus2=p1rlv1434.1.2 switch=n enabled=y phases=2 Linecode=1P_OH_AL_4/0_Zuzara_0_416_0_2_2_2_2_2_2_2_2_2_2_2_2_2_2_2_2_2_2_2_2_2_2_2_2_2_2_2_2_2

New Line.l(r:p1rdt1338lv-p1rlv1435) Units=km Length=0.001 bus1=p1rdt1338lv.1.2 bus2=p1rlv1435.1.2 switch=n enabled=y phases=2 Linecode=1P_OH_AL_4_Periwinkle_0_416_0_2_2_2_2_2_2_2_2_2_2_2_2_2_2_2_2_2_2_2_2_2_2_2_2_2_2_2_2_2

New Line.l(r:p1rdt1339lv-p1rlv1436) Units=km Length=0.0134827 bus1=p1rdt1339lv.1.2 bus2=p1rlv1436.1.2 switch=n enabled=y phases=2 Linecode=1P_OH_AL_2/0_Rucina_0_416_0_2_2_2_2_2_2_2_2_2_2_2_2_2_2_2_2_2_2_2_2_2_2_2_2_2_2_2_2_2

New Line.l(r:p1rdt1339lv-p1rlv13469) Units=km Length=0.0134827 bus1=p1rdt1339lv.1.2 bus2=p1rlv13469.1.2 switch=n enabled=y phases=2 Linecode=1P_OH_AL_2/0_Rucina_0_416_0_2_2_2_2_2_2_2_2_2_2_2_2_2_2_2_2_2_2_2_2_2_2_2_2_2_2_2_2_2

New Line.l(r:p1rdt1340lv-p1rlv1437) Units=km Length=0.001 bus1=p1rdt1340lv.1.2 bus2=p1rlv1437.1.2 switch=n enabled=y phases=2 Linecode=1P_OH_AL_4_Periwinkle_0_416_0_2_2_2_2_2_2_2_2_2_2_2_2_2_2_2_2_2_2_2_2_2_2_2_2_2_2_2_2_2

New Line.l(r:p1rdt1485lv-p1rlv1604) Units=km Length=0.001 bus1=p1rdt1485lv.1.2 bus2=p1rlv1604.1.2 switch=n enabled=y phases=2 Linecode=1P_OH_AL_4_Periwinkle_0_416_0_2_2_2_2_2_2_2_2_2_2_2_2_2_2_2_2_2_2_2_2_2_2_2_2_2_2_2_2_2

New Line.l(r:p1rdt1486lv-p1rlv1605) Units=km Length=0.0125104 bus1=p1rdt1486lv.1.2 bus2=p1rlv1605.1.2 switch=n enabled=y phases=2 Linecode=1P_OH_AL_2/0_Rucina_0_416_0_2_2_2_2_2_2_2_2_2_2_2_2_2_2_2_2_2_2_2_2_2_2_2_2_2_2_2_2_2

New Line.l(r:p1rdm3270-p1rlv4004) Units=km Length=0.042647500000000005 bus1=p1rdm3270.1.2 bus2=p1rlv4004.1.2 switch=n enabled=y phases=2 Linecode=1P_OH_AL_4/0_Zuzara_0_416_0_2_2_2_2_2_2_2_2_2_2_2_2_2_2_2_2_2_2_2_2_2_2_2_2_2_2_2_2_2

New Line.l(r:p1rdm3270-p1rdt1486lv) Units=km Length=0.0186901 bus1=p1rdt1486lv.1.2 bus2=p1rdm3270.1.2 switch=n enabled=y phases=2 Linecode=1P_OH_AL_2/0_Rucina_0_416_0_2_2_2_2_2_2_2_2_2_2_2_2_2_2_2_2_2_2_2_2_2_2_2_2_2_2_2_2_2

New Line.l(r:p1rdt1551lv-p1rlv1684) Units=km Length=0.001 bus1=p1rdt1551lv.1.2 bus2=p1rlv1684.1.2 switch=n enabled=y phases=2 Linecode=1P_OH_AL_4_Periwinkle_0_416_0_2_2_2_2_2_2_2_2_2_2_2_2_2_2_2_2_2_2_2_2_2_2_2_2_2_2_2_2_2

New Line.l(r:p1rdt1661lv-p1rlv1816) Units=km Length=0.022642300000000004 bus1=p1rdt1661lv.1.2 bus2=p1rlv1816.1.2 switch=n enabled=y phases=2 Linecode=1P_OH_AL_2/0_Rucina_0_416_0_2_2_2_2_2_2_2_2_2_2_2_2_2_2_2_2_2_2_2_2_2_2_2_2_2_2_2_2_2

New Line.l(r:p1rdt1661lv-p1rlv2777) Units=km Length=0.03606270000000001 bus1=p1rdt1661lv.1.2 bus2=p1rlv2777.1.2 switch=n enabled=y phases=2 Linecode=1P_OH_AL_4/0_Zuzara_0_416_0_2_2_2_2_2_2_2_2_2_2_2_2_2_2_2_2_2_2_2_2_2_2_2_2_2_2_2_2_2

New Line.l(r:p1rdt1661lv-p1rlv9678) Units=km Length=0.0321586 bus1=p1rdt1661lv.1.2 bus2=p1rlv9678.1.2 switch=n enabled=y phases=2 Linecode=1P_OH_AL_4/0_Zuzara_0_416_0_2_2_2_2_2_2_2_2_2_2_2_2_2_2_2_2_2_2_2_2_2_2_2_2_2_2_2_2_2

New Line.l(r:p1rdt1662lv-p1rlv1817) Units=km Length=0.0403946 bus1=p1rdt1662lv.1.2 bus2=p1rlv1817.1.2 switch=n enabled=y phases=2 Linecode=1P_OH_AL_4/0_Zuzara_0_416_0_2_2_2_2_2_2_2_2_2_2_2_2_2_2_2_2_2_2_2_2_2_2_2_2_2_2_2_2_2

New Line.l(r:p1rdt1662lv-p1rlv2779) Units=km Length=0.0403946 bus1=p1rdt1662lv.1.2 bus2=p1rlv2779.1.2 switch=n enabled=y phases=2 Linecode=1P_OH_AL_4/0_Zuzara_0_416_0_2_2_2_2_2_2_2_2_2_2_2_2_2_2_2_2_2_2_2_2_2_2_2_2_2_2_2_2_2

New Line.l(r:p1rdt1663lv-p1rlv1818) Units=km Length=0.020692900000000004 bus1=p1rdt1663lv.1.2 bus2=p1rlv1818.1.2 switch=n enabled=y phases=2 Linecode=1P_OH_AL_2/0_Rucina_0_416_0_2_2_2_2_2_2_2_2_2_2_2_2_2_2_2_2_2_2_2_2_2_2_2_2_2_2_2_2_2

New Line.l(r:p1rdt1663lv-p1rlv1819) Units=km Length=0.0529824 bus1=p1rdt1663lv.1.2 bus2=p1rlv1819.1.2 switch=n enabled=y phases=2 Linecode=1P_OH_AL_4/0_Zuzara_0_416_0_2_2_2_2_2_2_2_2_2_2_2_2_2_2_2_2_2_2_2_2_2_2_2_2_2_2_2_2_2

New Line.l(r:p1rdt1663lv-p1rlv2782) Units=km Length=0.013630400000000003 bus1=p1rdt1663lv.1.2 bus2=p1rlv2782.1.2 switch=n enabled=y phases=2 Linecode=1P_OH_AL_2/0_Rucina_0_416_0_2_2_2_2_2_2_2_2_2_2_2_2_2_2_2_2_2_2_2_2_2_2_2_2_2_2_2_2_2

New Line.l(r:p1rdt1663lv-p1rlv8605) Units=km Length=0.057168000000000004 bus1=p1rdt1663lv.1.2 bus2=p1rlv8605.1.2 switch=n enabled=y phases=2 Linecode=1P_OH_AL_4/0_Zuzara_0_416_0_2_2_2_2_2_2_2_2_2_2_2_2_2_2_2_2_2_2_2_2_2_2_2_2_2_2_2_2_2

New Line.l(r:p1rdt1781lv-p1rlv1960) Units=km Length=0.0410617 bus1=p1rdt1781lv.1.2 bus2=p1rlv1960.1.2 switch=n enabled=y phases=2 Linecode=1P_OH_AL_4/0_Zuzara_0_416_0_2_2_2_2_2_2_2_2_2_2_2_2_2_2_2_2_2_2_2_2_2_2_2_2_2_2_2_2_2
