New Load.load_p1rlv74 conn=wye bus1=p1rlv74.1.2 kV=0.2080002494301389 Vminpu=0.8 Vmaxpu=1.2 model=1 kW=5.43005 kvar=1.0997742311487098 Phases=2

New Load.load_p1rlv75 conn=wye bus1=p1rlv75.1.2 kV=0.2080002494301389 Vminpu=0.8 Vmaxpu=1.2 model=1 kW=6.44006 kvar=1.3110758338857833 Phases=2

New Load.load_p1rlv118 conn=wye bus1=p1rlv118.1.2 kV=0.2080002494301389 Vminpu=0.8 Vmaxpu=1.2 model=1 kW=3.06003 kvar=1.0003434661409862 Phases=2

New Load.load_p1rlv212 conn=wye bus1=p1rlv212.1.2 kV=0.2080002494301389 Vminpu=0.8 Vmaxpu=1.2 model=1 kW=6.100060000000001 kvar=1.2386700133870643 Phases=2

New Load.load_p1rlv213 conn=wye bus1=p1rlv213.1.2 kV=0.2080002494301389 Vminpu=0.8 Vmaxpu=1.2 model=1 kW=5.560060000000001 kvar=1.129018336644702 Phases=2

New Load.load_p1rlv214 conn=wye bus1=p1rlv214.1.2 kV=0.2080002494301389 Vminpu=0.8 Vmaxpu=1.2 model=1 kW=5.44005 kvar=1.0989433780109366 Phases=2

New Load.load_p1rlv258 conn=wye bus1=p1rlv258.1.2 kV=0.2080002494301389 Vminpu=0.8 Vmaxpu=1.2 model=1 kW=4.80005 kvar=0.9696571100672596 Phases=2

New Load.load_p1rlv344 conn=wye bus1=p1rlv344.1.2 kV=0.2080002494301389 Vminpu=0.8 Vmaxpu=1.2 model=1 kW=1.0600100000000001 kvar=0.3499107480604964 Phases=2

New Load.load_p1rlv345 conn=wye bus1=p1rlv345.1.2 kV=0.2080002494301389 Vminpu=0.8 Vmaxpu=1.2 model=1 kW=8.89009 kvar=1.809856144208232 Phases=2

New Load.load_p1rlv346 conn=wye bus1=p1rlv346.1.2 kV=0.2080002494301389 Vminpu=0.8 Vmaxpu=1.2 model=1 kW=8.65009 kvar=1.7609966304564053 Phases=2

New Load.load_p1rlv347 conn=wye bus1=p1rlv347.1.2 kV=0.2080002494301389 Vminpu=0.8 Vmaxpu=1.2 model=1 kW=6.34006 kvar=1.2907177031558559 Phases=2

New Load.load_p1rlv465 conn=wye bus1=p1rlv465.1.2 kV=0.2080002494301389 Vminpu=0.8 Vmaxpu=1.2 model=1 kW=15.3502 kvar=3.1169910524640922 Phases=2

New Load.load_p1rlv466 conn=wye bus1=p1rlv466.1.2 kV=0.2080002494301389 Vminpu=0.8 Vmaxpu=1.2 model=1 kW=6.270060000000001 kvar=2.060869060517783 Phases=2

New Load.load_p1rlv467 conn=wye bus1=p1rlv467.1.2.3 kV=0.48 Vminpu=0.8 Vmaxpu=1.2 model=1 kW=52.2505 kvar=10.609916547457042 Phases=3

New Load.load_p1rlv468 conn=wye bus1=p1rlv468.1.2 kV=0.2080002494301389 Vminpu=0.8 Vmaxpu=1.2 model=1 kW=3.12003 kvar=1.0199578516105596 Phases=2

New Load.load_p1rlv469 conn=wye bus1=p1rlv469.1.2 kV=0.2080002494301389 Vminpu=0.8 Vmaxpu=1.2 model=1 kW=4.87005 kvar=0.9889058302206326 Phases=2

New Load.load_p1rlv470 conn=wye bus1=p1rlv470.1.2 kV=0.2080002494301389 Vminpu=0.8 Vmaxpu=1.2 model=1 kW=3.66004 kvar=0.7393639251946486 Phases=2

New Load.load_p1rlv515 conn=wye bus1=p1rlv515.1.2 kV=0.2080002494301389 Vminpu=0.8 Vmaxpu=1.2 model=1 kW=2.60003 kvar=0.8499665108742557 Phases=2

New Load.load_p1rlv516 conn=wye bus1=p1rlv516.1.2 kV=0.2080002494301389 Vminpu=0.8 Vmaxpu=1.2 model=1 kW=6.270060000000001 kvar=1.269905510217453 Phases=2

New Load.load_p1rlv602 conn=wye bus1=p1rlv602.1.2 kV=0.2080002494301389 Vminpu=0.8 Vmaxpu=1.2 model=1 kW=2.06002 kvar=0.6800154142126806 Phases=2

New Load.load_p1rlv604 conn=wye bus1=p1rlv604.1.2 kV=0.2080002494301389 Vminpu=0.8 Vmaxpu=1.2 model=1 kW=5.770060000000001 kvar=1.1686380972885935 Phases=2

New Load.load_p1rlv605 conn=wye bus1=p1rlv605.1.2 kV=0.2080002494301389 Vminpu=0.8 Vmaxpu=1.2 model=1 kW=4.78005 kvar=0.9706305507635722 Phases=2

New Load.load_p1rlv606 conn=wye bus1=p1rlv606.1.2 kV=0.2080002494301389 Vminpu=0.8 Vmaxpu=1.2 model=1 kW=7.030070000000001 kvar=1.43119084100543 Phases=2

New Load.load_p1rlv657 conn=wye bus1=p1rlv657.1.2 kV=0.2080002494301389 Vminpu=0.8 Vmaxpu=1.2 model=1 kW=5.63006 kvar=1.1402832216685126 Phases=2

New Load.load_p1rlv659 conn=wye bus1=p1rlv659.1.2 kV=0.2080002494301389 Vminpu=0.8 Vmaxpu=1.2 model=1 kW=7.86008 kvar=1.6001653618769034 Phases=2

New Load.load_p1rlv757 conn=wye bus1=p1rlv757.1.2 kV=0.2080002494301389 Vminpu=0.8 Vmaxpu=1.2 model=1 kW=4.4900400000000005 kvar=1.469421752889673 Phases=2

New Load.load_p1rlv758 conn=wye bus1=p1rlv758.1.2.3 kV=0.48 Vminpu=0.8 Vmaxpu=1.2 model=1 kW=37.3704 kvar=7.588383371356995 Phases=3

New Load.load_p1rlv759 conn=wye bus1=p1rlv759.1.2 kV=0.2080002494301389 Vminpu=0.8 Vmaxpu=1.2 model=1 kW=3.11003 kvar=0.6298893844622836 Phases=2

New Load.load_p1rlv760 conn=wye bus1=p1rlv760.1.2 kV=0.2080002494301389 Vminpu=0.8 Vmaxpu=1.2 model=1 kW=9.6301 kvar=1.96050834742277 Phases=2

New Load.load_p1rlv761 conn=wye bus1=p1rlv761.1.2 kV=0.2080002494301389 Vminpu=0.8 Vmaxpu=1.2 model=1 kW=3.99004 kvar=0.8102121782761024 Phases=2

New Load.load_p1rlv890 conn=wye bus1=p1rlv890.1.2.3 kV=0.48 Vminpu=0.8 Vmaxpu=1.2 model=1 kW=51.07050000000002 kvar=10.370307327908918 Phases=3

New Load.load_p1rlv896 conn=wye bus1=p1rlv896.1.2 kV=0.2080002494301389 Vminpu=0.8 Vmaxpu=1.2 model=1 kW=17.4002 kvar=5.719169166933255 Phases=2

New Load.load_p1rlv897 conn=wye bus1=p1rlv897.1.2 kV=0.2080002494301389 Vminpu=0.8 Vmaxpu=1.2 model=1 kW=1.64002 kvar=0.5402115565350929 Phases=2

New Load.load_p1rlv898 conn=wye bus1=p1rlv898.1.2 kV=0.2080002494301389 Vminpu=0.8 Vmaxpu=1.2 model=1 kW=5.16005 kvar=1.0504897247296356 Phases=2

New Load.load_p1rlv899 conn=wye bus1=p1rlv899.1.2 kV=0.2080002494301389 Vminpu=0.8 Vmaxpu=1.2 model=1 kW=5.47005 kvar=1.110741026601035 Phases=2

New Load.load_p1rlv951 conn=wye bus1=p1rlv951.1.2 kV=0.2080002494301389 Vminpu=0.8 Vmaxpu=1.2 model=1 kW=1.27001 kvar=0.25987334887935604 Phases=2

New Load.load_p1rlv1029 conn=wye bus1=p1rlv1029.1.2 kV=0.2080002494301389 Vminpu=0.8 Vmaxpu=1.2 model=1 kW=5.32005 kvar=1.0802822275059345 Phases=2

New Load.load_p1rlv1030 conn=wye bus1=p1rlv1030.1.2 kV=0.2080002494301389 Vminpu=0.8 Vmaxpu=1.2 model=1 kW=3.85004 kvar=0.7797671809452545 Phases=2

New Load.load_p1rlv1031 conn=wye bus1=p1rlv1031.1.2 kV=0.2080002494301389 Vminpu=0.8 Vmaxpu=1.2 model=1 kW=3.54004 kvar=0.7206859710917335 Phases=2

New Load.load_p1rlv1032 conn=wye bus1=p1rlv1032.1.2 kV=0.2080002494301389 Vminpu=0.8 Vmaxpu=1.2 model=1 kW=8.12008 kvar=1.6488525690409657 Phases=2

New Load.load_p1rlv1058 conn=wye bus1=p1rlv1058.1.2 kV=0.2080002494301389 Vminpu=0.8 Vmaxpu=1.2 model=1 kW=2.99003 kvar=0.6102734204701886 Phases=2

New Load.load_p1rlv1073 conn=wye bus1=p1rlv1073.1.2 kV=0.2080002494301389 Vminpu=0.8 Vmaxpu=1.2 model=1 kW=5.76006 kvar=1.1696300687715029 Phases=2

New Load.load_p1rlv1159 conn=wye bus1=p1rlv1159.1.2 kV=0.2080002494301389 Vminpu=0.8 Vmaxpu=1.2 model=1 kW=1.46001 kvar=0.47988208040219194 Phases=2

New Load.load_p1rlv1160 conn=wye bus1=p1rlv1160.1.2 kV=0.2080002494301389 Vminpu=0.8 Vmaxpu=1.2 model=1 kW=7.11007 kvar=2.339489074504179 Phases=2

New Load.load_p1rlv1161 conn=wye bus1=p1rlv1161.1.2 kV=0.2080002494301389 Vminpu=0.8 Vmaxpu=1.2 model=1 kW=6.12006 kvar=1.239525286338795 Phases=2

New Load.load_p1rlv1276 conn=wye bus1=p1rlv1276.1.2 kV=0.2080002494301389 Vminpu=0.8 Vmaxpu=1.2 model=1 kW=0.9900100000000001 kvar=0.3299452313439445 Phases=2

New Load.load_p1rlv1278 conn=wye bus1=p1rlv1278.1.2 kV=0.2080002494301389 Vminpu=0.8 Vmaxpu=1.2 model=1 kW=1.25001 kvar=0.40997059545635767 Phases=2

New Load.load_p1rlv1327 conn=wye bus1=p1rlv1327.1.2 kV=0.2080002494301389 Vminpu=0.8 Vmaxpu=1.2 model=1 kW=5.04005 kvar=1.0207856490641993 Phases=2

New Load.load_p1rlv1328 conn=wye bus1=p1rlv1328.1.2 kV=0.2080002494301389 Vminpu=0.8 Vmaxpu=1.2 model=1 kW=0.890009 kvar=0.28999743067956907 Phases=2

New Load.load_p1rlv1329 conn=wye bus1=p1rlv1329.1.2 kV=0.2080002494301389 Vminpu=0.8 Vmaxpu=1.2 model=1 kW=5.560060000000001 kvar=1.129018336644702 Phases=2

New Load.load_p1rlv1434 conn=wye bus1=p1rlv1434.1.2 kV=0.2080002494301389 Vminpu=0.8 Vmaxpu=1.2 model=1 kW=3.67004 kvar=1.210186344267025 Phases=2

New Load.load_p1rlv1435 conn=wye bus1=p1rlv1435.1.2 kV=0.2080002494301389 Vminpu=0.8 Vmaxpu=1.2 model=1 kW=2.38002 kvar=0.7797381477161418 Phases=2

New Load.load_p1rlv1436 conn=wye bus1=p1rlv1436.1.2 kV=0.2080002494301389 Vminpu=0.8 Vmaxpu=1.2 model=1 kW=2.61003 kvar=0.5299891960145702 Phases=2

New Load.load_p1rlv1437 conn=wye bus1=p1rlv1437.1.2 kV=0.2080002494301389 Vminpu=0.8 Vmaxpu=1.2 model=1 kW=5.30005 kvar=1.0789911077515342 Phases=2

New Load.load_p1rlv1484 conn=wye bus1=p1rlv1484.1.2 kV=0.2080002494301389 Vminpu=0.8 Vmaxpu=1.2 model=1 kW=4.29004 kvar=0.8711297764663039 Phases=2

New Load.load_p1rlv1585 conn=wye bus1=p1rlv1585.1.2 kV=0.2080002494301389 Vminpu=0.8 Vmaxpu=1.2 model=1 kW=5.26005 kvar=1.070847855459563 Phases=2

New Load.load_p1rlv1604 conn=wye bus1=p1rlv1604.1.2 kV=0.2080002494301389 Vminpu=0.8 Vmaxpu=1.2 model=1 kW=11.8801 kvar=2.4123571941980346 Phases=2

New Load.load_p1rlv1605 conn=wye bus1=p1rlv1605.1.2 kV=0.2080002494301389 Vminpu=0.8 Vmaxpu=1.2 model=1 kW=5.18005 kvar=1.0491405246842802 Phases=2

New Load.load_p1rlv1683 conn=wye bus1=p1rlv1683.1.2 kV=0.2080002494301389 Vminpu=0.8 Vmaxpu=1.2 model=1 kW=16.4002 kvar=5.390485061754392 Phases=2

New Load.load_p1rlv1684 conn=wye bus1=p1rlv1684.1.2 kV=0.2080002494301389 Vminpu=0.8 Vmaxpu=1.2 model=1 kW=7.18007 kvar=1.4617280371003216 Phases=2

New Load.load_p1rlv1816 conn=wye bus1=p1rlv1816.1.2 kV=0.2080002494301389 Vminpu=0.8 Vmaxpu=1.2 model=1 kW=8.24008 kvar=1.6689031678536776 Phases=2

New Load.load_p1rlv1817 conn=wye bus1=p1rlv1817.1.2 kV=0.2080002494301389 Vminpu=0.8 Vmaxpu=1.2 model=1 kW=1.13001 kvar=0.3698099070348726 Phases=2

New Load.load_p1rlv1818 conn=wye bus1=p1rlv1818.1.2 kV=0.2080002494301389 Vminpu=0.8 Vmaxpu=1.2 model=1 kW=6.12006 kvar=1.239525286338795 Phases=2

New Load.load_p1rlv1819 conn=wye bus1=p1rlv1819.1.2 kV=0.2080002494301389 Vminpu=0.8 Vmaxpu=1.2 model=1 kW=6.34006 kvar=1.2907177031558559 Phases=2

New Load.load_p1rlv1958 conn=wye bus1=p1rlv1958.1.2 kV=0.2080002494301389 Vminpu=0.8 Vmaxpu=1.2 model=1 kW=4.41004 kvar=1.4495100512029937 Phases=2

New Load.load_p1rlv1959 conn=wye bus1=p1rlv1959.1.2 kV=0.2080002494301389 Vminpu=0.8 Vmaxpu=1.2 model=1 kW=7.54008 kvar=1.531078545873243 Phases=2

New Load.load_p1rlv1960 conn=wye bus1=p1rlv1960.1.2 kV=0.2080002494301389 Vminpu=0.8 Vmaxpu=1.2 model=1 kW=6.58007 kvar=1.3395792527207553 Phases=2

New Load.load_p1rlv2081 conn=wye bus1=p1rlv2081.1.2 kV=0.2080002494301389 Vminpu=0.8 Vmaxpu=1.2 model=1 kW=9.7101 kvar=1.9717199006222452 Phases=2

New Load.load_p1rlv2082 conn=wye bus1=p1rlv2082.1.2 kV=0.2080002494301389 Vminpu=0.8 Vmaxpu=1.2 model=1 kW=18.9902 kvar=6.241776894167647 Phases=2

New Load.load_p1rlv2083 conn=wye bus1=p1rlv2083.1.2 kV=0.2080002494301389 Vminpu=0.8 Vmaxpu=1.2 model=1 kW=2.77003 kvar=0.5595731887375364 Phases=2

New Load.load_p1rlv2085 conn=wye bus1=p1rlv2085.1.2 kV=0.2080002494301389 Vminpu=0.8 Vmaxpu=1.2 model=1 kW=3.97004 kvar=1.300657824706932 Phases=2

New Load.load_p1rlv2086 conn=wye bus1=p1rlv2086.1.2 kV=0.2080002494301389 Vminpu=0.8 Vmaxpu=1.2 model=1 kW=0.750008 kvar=0.24995864998314074 Phases=2

New Load.load_p1rlv2124 conn=wye bus1=p1rlv2124.1.2 kV=0.2080002494301389 Vminpu=0.8 Vmaxpu=1.2 model=1 kW=5.24005 kvar=1.0612926142357433 Phases=2

New Load.load_p1rlv2215 conn=wye bus1=p1rlv2215.1.2.3 kV=0.48 Vminpu=0.8 Vmaxpu=1.2 model=1 kW=23.0302 kvar=4.676481566133246 Phases=3

New Load.load_p1rlv2218 conn=wye bus1=p1rlv2218.1.2 kV=0.2080002494301389 Vminpu=0.8 Vmaxpu=1.2 model=1 kW=10.0401 kvar=2.0387292586314665 Phases=2

New Load.load_p1rlv2219 conn=wye bus1=p1rlv2219.1.2 kV=0.2080002494301389 Vminpu=0.8 Vmaxpu=1.2 model=1 kW=11.1301 kvar=2.260063198722531 Phases=2

New Load.load_p1rlv2220 conn=wye bus1=p1rlv2220.1.2 kV=0.2080002494301389 Vminpu=0.8 Vmaxpu=1.2 model=1 kW=11.5501 kvar=2.3392974921392464 Phases=2

New Load.load_p1rlv2221 conn=wye bus1=p1rlv2221.1.2 kV=0.2080002494301389 Vminpu=0.8 Vmaxpu=1.2 model=1 kW=4.01004 kvar=0.810067352976347 Phases=2

New Load.load_p1rlv2222 conn=wye bus1=p1rlv2222.1.2 kV=0.2080002494301389 Vminpu=0.8 Vmaxpu=1.2 model=1 kW=6.90007 kvar=1.4011189724808741 Phases=2

New Load.load_p1rlv2223 conn=wye bus1=p1rlv2223.1.2 kV=0.2080002494301389 Vminpu=0.8 Vmaxpu=1.2 model=1 kW=4.76005 kvar=0.9690572018099246 Phases=2

New Load.load_p1rlv2224 conn=wye bus1=p1rlv2224.1.2 kV=0.2080002494301389 Vminpu=0.8 Vmaxpu=1.2 model=1 kW=0.550006 kvar=0.1799963431550359 Phases=2

New Load.load_p1rlv2225 conn=wye bus1=p1rlv2225.1.2 kV=0.2080002494301389 Vminpu=0.8 Vmaxpu=1.2 model=1 kW=4.78005 kvar=0.9706305507635722 Phases=2

New Load.load_p1rlv2226 conn=wye bus1=p1rlv2226.1.2 kV=0.2080002494301389 Vminpu=0.8 Vmaxpu=1.2 model=1 kW=3.0300300000000004 kvar=1.0002170394107093 Phases=2

New Load.load_p1rlv2227 conn=wye bus1=p1rlv2227.1.2 kV=0.2080002494301389 Vminpu=0.8 Vmaxpu=1.2 model=1 kW=7.99008 kvar=1.6182694613892477 Phases=2

New Load.load_p1rlv2228 conn=wye bus1=p1rlv2228.1.2 kV=0.2080002494301389 Vminpu=0.8 Vmaxpu=1.2 model=1 kW=7.6700800000000005 kvar=1.5614849134900406 Phases=2

New Load.load_p1rlv2254 conn=wye bus1=p1rlv2254.1.2 kV=0.2080002494301389 Vminpu=0.8 Vmaxpu=1.2 model=1 kW=5.460050000000001 kvar=1.1087104399946952 Phases=2

New Load.load_p1rlv2370 conn=wye bus1=p1rlv2370.1.2 kV=0.2080002494301389 Vminpu=0.8 Vmaxpu=1.2 model=1 kW=6.58007 kvar=1.3395792527207553 Phases=2

New Load.load_p1rlv2371 conn=wye bus1=p1rlv2371.1.2 kV=0.2080002494301389 Vminpu=0.8 Vmaxpu=1.2 model=1 kW=0.470005 kvar=0.14993210774545074 Phases=2

New Load.load_p1rlv2373 conn=wye bus1=p1rlv2373.1.2 kV=0.2080002494301389 Vminpu=0.8 Vmaxpu=1.2 model=1 kW=9.13009 kvar=1.849161188215306 Phases=2

New Load.load_p1rlv2374 conn=wye bus1=p1rlv2374.1.2 kV=0.2080002494301389 Vminpu=0.8 Vmaxpu=1.2 model=1 kW=6.350060000000001 kvar=1.2894346785455655 Phases=2

New Load.load_p1rlv2375 conn=wye bus1=p1rlv2375.1.2 kV=0.2080002494301389 Vminpu=0.8 Vmaxpu=1.2 model=1 kW=7.13007 kvar=1.4515489717353578 Phases=2

New Load.load_p1rlv2376 conn=wye bus1=p1rlv2376.1.2 kV=0.2080002494301389 Vminpu=0.8 Vmaxpu=1.2 model=1 kW=4.920050000000001 kvar=0.9990587632523329 Phases=2

New Load.load_p1rlv2393 conn=wye bus1=p1rlv2393.1.2 kV=0.2080002494301389 Vminpu=0.8 Vmaxpu=1.2 model=1 kW=4.99005 kvar=1.0106589077713133 Phases=2

New Load.load_p1rlv2397 conn=wye bus1=p1rlv2397.1.2 kV=0.2080002494301389 Vminpu=0.8 Vmaxpu=1.2 model=1 kW=5.68006 kvar=1.1504099629613984 Phases=2

New Load.load_p1rlv2418 conn=wye bus1=p1rlv2418.1.2 kV=0.2080002494301389 Vminpu=0.8 Vmaxpu=1.2 model=1 kW=9.27009 kvar=1.8823720593566768 Phases=2

New Load.load_p1rlv2499 conn=wye bus1=p1rlv2499.1.2 kV=0.2080002494301389 Vminpu=0.8 Vmaxpu=1.2 model=1 kW=15.7102 kvar=5.158116060355888 Phases=2

New Load.load_p1rlv2500 conn=wye bus1=p1rlv2500.1.2 kV=0.2080002494301389 Vminpu=0.8 Vmaxpu=1.2 model=1 kW=0.810008 kvar=0.2699551286860191 Phases=2

New Load.load_p1rlv2501 conn=wye bus1=p1rlv2501.1.2 kV=0.2080002494301389 Vminpu=0.8 Vmaxpu=1.2 model=1 kW=1.08001 kvar=0.34997480711346873 Phases=2

New Load.load_p1rlv2502 conn=wye bus1=p1rlv2502.1.2 kV=0.2080002494301389 Vminpu=0.8 Vmaxpu=1.2 model=1 kW=18.2102 kvar=5.978938847518987 Phases=2

New Load.load_p1rlv2503 conn=wye bus1=p1rlv2503.1.2 kV=0.2080002494301389 Vminpu=0.8 Vmaxpu=1.2 model=1 kW=5.55006 kvar=1.1298884703894267 Phases=2

New Load.load_p1rlv2538 conn=wye bus1=p1rlv2538.1.2 kV=0.2080002494301389 Vminpu=0.8 Vmaxpu=1.2 model=1 kW=2.28002 kvar=0.7502151005054829 Phases=2

New Load.load_p1rlv2539 conn=wye bus1=p1rlv2539.1.2 kV=0.2080002494301389 Vminpu=0.8 Vmaxpu=1.2 model=1 kW=0.36000400000000005 kvar=0.11998020531585075 Phases=2

New Load.load_p1rlv2640 conn=wye bus1=p1rlv2640.1.2 kV=0.2080002494301389 Vminpu=0.8 Vmaxpu=1.2 model=1 kW=10.760100000000001 kvar=3.5404906548841883 Phases=2

New Load.load_p1rlv2641 conn=wye bus1=p1rlv2641.1.2.3 kV=0.48 Vminpu=0.8 Vmaxpu=1.2 model=1 kW=36.2304 kvar=7.356896498234229 Phases=3

New Load.load_p1rlv2642 conn=wye bus1=p1rlv2642.1.2 kV=0.2080002494301389 Vminpu=0.8 Vmaxpu=1.2 model=1 kW=3.35003 kvar=0.6802526048837334 Phases=2

New Load.load_p1rlv2777 conn=wye bus1=p1rlv2777.1.2 kV=0.2080002494301389 Vminpu=0.8 Vmaxpu=1.2 model=1 kW=7.77008 kvar=2.5594120871710064 Phases=2

New Load.load_p1rlv2778 conn=wye bus1=p1rlv2778.1.2 kV=0.2080002494301389 Vminpu=0.8 Vmaxpu=1.2 model=1 kW=9.50009 kvar=3.1191561408401145 Phases=2

New Load.load_p1rlv2779 conn=wye bus1=p1rlv2779.1.2 kV=0.2080002494301389 Vminpu=0.8 Vmaxpu=1.2 model=1 kW=0.730007 kvar=0.23994169756930633 Phases=2

New Load.load_p1rlv2780 conn=wye bus1=p1rlv2780.1.2 kV=0.2080002494301389 Vminpu=0.8 Vmaxpu=1.2 model=1 kW=5.91006 kvar=1.200088867866603 Phases=2

New Load.load_p1rlv2781 conn=wye bus1=p1rlv2781.1.2 kV=0.2080002494301389 Vminpu=0.8 Vmaxpu=1.2 model=1 kW=5.88006 kvar=1.1909169281329426 Phases=2

New Load.load_p1rlv2782 conn=wye bus1=p1rlv2782.1.2 kV=0.2080002494301389 Vminpu=0.8 Vmaxpu=1.2 model=1 kW=5.22005 kvar=1.059976361442534 Phases=2

New Load.load_p1rlv2783 conn=wye bus1=p1rlv2783.1.2 kV=0.2080002494301389 Vminpu=0.8 Vmaxpu=1.2 model=1 kW=8.75009 kvar=1.7813547611863327 Phases=2

New Load.load_p1rlv2823 conn=wye bus1=p1rlv2823.1.2 kV=0.2080002494301389 Vminpu=0.8 Vmaxpu=1.2 model=1 kW=4.62005 kvar=0.940555818788026 Phases=2

New Load.load_p1rlv2824 conn=wye bus1=p1rlv2824.1.2 kV=0.2080002494301389 Vminpu=0.8 Vmaxpu=1.2 model=1 kW=4.60005 kvar=0.9292551513348608 Phases=2

New Load.load_p1rlv2901 conn=wye bus1=p1rlv2901.1.2 kV=0.2080002494301389 Vminpu=0.8 Vmaxpu=1.2 model=1 kW=8.98009 kvar=1.8187809643366486 Phases=2

New Load.load_p1rlv2903 conn=wye bus1=p1rlv2903.1.2 kV=0.2080002494301389 Vminpu=0.8 Vmaxpu=1.2 model=1 kW=3.6900400000000007 kvar=1.2102366349531428 Phases=2

New Load.load_p1rlv2904 conn=wye bus1=p1rlv2904.1.2 kV=0.2080002494301389 Vminpu=0.8 Vmaxpu=1.2 model=1 kW=2.20002 kvar=0.7199840635701102 Phases=2

New Load.load_p1rlv3021 conn=wye bus1=p1rlv3021.1.2 kV=0.2080002494301389 Vminpu=0.8 Vmaxpu=1.2 model=1 kW=0.820008 kvar=0.27010511948099925 Phases=2

New Load.load_p1rlv3022 conn=wye bus1=p1rlv3022.1.2 kV=0.2080002494301389 Vminpu=0.8 Vmaxpu=1.2 model=1 kW=6.08006 kvar=1.231423893304486 Phases=2

New Load.load_p1rlv3023 conn=wye bus1=p1rlv3023.1.2.3 kV=0.48 Vminpu=0.8 Vmaxpu=1.2 model=1 kW=40.2704 kvar=8.177253487195607 Phases=3

New Load.load_p1rlv3024 conn=wye bus1=p1rlv3024.1.2.3 kV=0.48 Vminpu=0.8 Vmaxpu=1.2 model=1 kW=28.620300000000004 kvar=9.407037695450617 Phases=3

New Load.load_p1rlv3025 conn=wye bus1=p1rlv3025.1.2 kV=0.2080002494301389 Vminpu=0.8 Vmaxpu=1.2 model=1 kW=5.90006 kvar=1.2011419279441737 Phases=2

New Load.load_p1rlv3044 conn=wye bus1=p1rlv3044.1.2 kV=0.2080002494301389 Vminpu=0.8 Vmaxpu=1.2 model=1 kW=4.89005 kvar=0.9904054251855413 Phases=2

New Load.load_p1rlv3064 conn=wye bus1=p1rlv3064.1.2 kV=0.2080002494301389 Vminpu=0.8 Vmaxpu=1.2 model=1 kW=3.9400400000000007 kvar=0.8000592452444024 Phases=2

New Load.load_p1rlv3148 conn=wye bus1=p1rlv3148.1.2 kV=0.2080002494301389 Vminpu=0.8 Vmaxpu=1.2 model=1 kW=4.58005 kvar=1.5005082744881622 Phases=2

New Load.load_p1rlv3149 conn=wye bus1=p1rlv3149.1.2 kV=0.2080002494301389 Vminpu=0.8 Vmaxpu=1.2 model=1 kW=15.3702 kvar=3.1210522256767725 Phases=2

New Load.load_p1rlv3150 conn=wye bus1=p1rlv3150.1.2 kV=0.2080002494301389 Vminpu=0.8 Vmaxpu=1.2 model=1 kW=2.11002 kvar=0.42956063002762096 Phases=2

New Load.load_p1rlv3151 conn=wye bus1=p1rlv3151.1.2 kV=0.2080002494301389 Vminpu=0.8 Vmaxpu=1.2 model=1 kW=6.16006 kvar=1.2508535330251045 Phases=2

New Load.load_p1rlv3152 conn=wye bus1=p1rlv3152.1.2 kV=0.2080002494301389 Vminpu=0.8 Vmaxpu=1.2 model=1 kW=6.15006 kvar=1.2488229464187643 Phases=2

New Load.load_p1rlv3193 conn=wye bus1=p1rlv3193.1.2 kV=0.2080002494301389 Vminpu=0.8 Vmaxpu=1.2 model=1 kW=6.820070000000001 kvar=1.388438766472582 Phases=2

New Load.load_p1rlv3287 conn=wye bus1=p1rlv3287.1.2 kV=0.2080002494301389 Vminpu=0.8 Vmaxpu=1.2 model=1 kW=0.570006 kvar=0.18996854732521534 Phases=2

New Load.load_p1rlv3288 conn=wye bus1=p1rlv3288.1.2 kV=0.2080002494301389 Vminpu=0.8 Vmaxpu=1.2 model=1 kW=11.4401 kvar=2.3230113835190718 Phases=2

New Load.load_p1rlv3289 conn=wye bus1=p1rlv3289.1.2 kV=0.2080002494301389 Vminpu=0.8 Vmaxpu=1.2 model=1 kW=4.76005 kvar=1.5696143660636535 Phases=2

New Load.load_p1rlv3419 conn=wye bus1=p1rlv3419.1.2 kV=0.2080002494301389 Vminpu=0.8 Vmaxpu=1.2 model=1 kW=3.49003 kvar=1.149592406589048 Phases=2

New Load.load_p1rlv3420 conn=wye bus1=p1rlv3420.1.2 kV=0.2080002494301389 Vminpu=0.8 Vmaxpu=1.2 model=1 kW=2.33002 kvar=0.469460711936096 Phases=2

New Load.load_p1rlv3440 conn=wye bus1=p1rlv3440.1.2 kV=0.2080002494301389 Vminpu=0.8 Vmaxpu=1.2 model=1 kW=11.760100000000001 kvar=3.8695294793267294 Phases=2

New Load.load_p1rlv3470 conn=wye bus1=p1rlv3470.1.2 kV=0.2080002494301389 Vminpu=0.8 Vmaxpu=1.2 model=1 kW=7.86008 kvar=1.6001653618769034 Phases=2

New Load.load_p1rlv3569 conn=wye bus1=p1rlv3569.1.2 kV=0.2080002494301389 Vminpu=0.8 Vmaxpu=1.2 model=1 kW=0.950009 kvar=0.30988669297827337 Phases=2

New Load.load_p1rlv3570 conn=wye bus1=p1rlv3570.1.2 kV=0.2080002494301389 Vminpu=0.8 Vmaxpu=1.2 model=1 kW=1.15001 kvar=0.3800265653418643 Phases=2

New Load.load_p1rlv3571 conn=wye bus1=p1rlv3571.1.2 kV=0.2080002494301389 Vminpu=0.8 Vmaxpu=1.2 model=1 kW=6.47006 kvar=1.3104124753889972 Phases=2

New Load.load_p1rlv3612 conn=wye bus1=p1rlv3612.1.2 kV=0.2080002494301389 Vminpu=0.8 Vmaxpu=1.2 model=1 kW=4.72005 kvar=0.9609139495179535 Phases=2

New Load.load_p1rlv3705 conn=wye bus1=p1rlv3705.1.2 kV=0.2080002494301389 Vminpu=0.8 Vmaxpu=1.2 model=1 kW=1.39001 kvar=0.4598269662194208 Phases=2

New Load.load_p1rlv3706 conn=wye bus1=p1rlv3706.1.2 kV=0.2080002494301389 Vminpu=0.8 Vmaxpu=1.2 model=1 kW=5.27005 kvar=1.0701292944742342 Phases=2

New Load.load_p1rlv3707 conn=wye bus1=p1rlv3707.1.2 kV=0.2080002494301389 Vminpu=0.8 Vmaxpu=1.2 model=1 kW=11.2301 kvar=2.2803690647859316 Phases=2

New Load.load_p1rlv3761 conn=wye bus1=p1rlv3761.1.2 kV=0.2080002494301389 Vminpu=0.8 Vmaxpu=1.2 model=1 kW=5.43005 kvar=1.0997742311487098 Phases=2

New Load.load_p1rlv3762 conn=wye bus1=p1rlv3762.1.2 kV=0.2080002494301389 Vminpu=0.8 Vmaxpu=1.2 model=1 kW=6.21006 kvar=1.2610064660568046 Phases=2

New Load.load_p1rlv3841 conn=wye bus1=p1rlv3841.1.2 kV=0.2080002494301389 Vminpu=0.8 Vmaxpu=1.2 model=1 kW=17.2102 kvar=5.662823976421024 Phases=2

New Load.load_p1rlv3842 conn=wye bus1=p1rlv3842.1.2 kV=0.2080002494301389 Vminpu=0.8 Vmaxpu=1.2 model=1 kW=2.29002 kvar=0.7502524991524943 Phases=2

New Load.load_p1rlv3843 conn=wye bus1=p1rlv3843.1.2 kV=0.2080002494301389 Vminpu=0.8 Vmaxpu=1.2 model=1 kW=5.520060000000001 kvar=1.1208959902193418 Phases=2

New Load.load_p1rlv3874 conn=wye bus1=p1rlv3874.1.2 kV=0.2080002494301389 Vminpu=0.8 Vmaxpu=1.2 model=1 kW=5.460050000000001 kvar=1.1087104399946952 Phases=2

New Load.load_p1rlv3875 conn=wye bus1=p1rlv3875.1.2 kV=0.2080002494301389 Vminpu=0.8 Vmaxpu=1.2 model=1 kW=6.530070000000001 kvar=1.3294001873557917 Phases=2

New Load.load_p1rlv3953 conn=wye bus1=p1rlv3953.1.2 kV=0.2080002494301389 Vminpu=0.8 Vmaxpu=1.2 model=1 kW=0.520005 kvar=0.16999297526842666 Phases=2

New Load.load_p1rlv3955 conn=wye bus1=p1rlv3955.1.2 kV=0.2080002494301389 Vminpu=0.8 Vmaxpu=1.2 model=1 kW=5.27005 kvar=1.0701292944742342 Phases=2

New Load.load_p1rlv3956 conn=wye bus1=p1rlv3956.1.2 kV=0.2080002494301389 Vminpu=0.8 Vmaxpu=1.2 model=1 kW=5.58006 kvar=1.1301564803756265 Phases=2

New Load.load_p1rlv3974 conn=wye bus1=p1rlv3974.1.2 kV=0.2080002494301389 Vminpu=0.8 Vmaxpu=1.2 model=1 kW=3.54004 kvar=1.1597819482361709 Phases=2

New Load.load_p1rlv4003 conn=wye bus1=p1rlv4003.1.2 kV=0.2080002494301389 Vminpu=0.8 Vmaxpu=1.2 model=1 kW=5.19005 kvar=1.0511658729428572 Phases=2

New Load.load_p1rlv4004 conn=wye bus1=p1rlv4004.1.2 kV=0.2080002494301389 Vminpu=0.8 Vmaxpu=1.2 model=1 kW=4.94005 kvar=1.0005321664784275 Phases=2

New Load.load_p1rlv4093 conn=wye bus1=p1rlv4093.1.2.3 kV=0.48 Vminpu=0.8 Vmaxpu=1.2 model=1 kW=111.351 kvar=22.610784920257014 Phases=3

New Load.load_p1rlv4094 conn=wye bus1=p1rlv4094.1.2 kV=0.2080002494301389 Vminpu=0.8 Vmaxpu=1.2 model=1 kW=2.87003 kvar=0.5797741681037358 Phases=2

New Load.load_p1rlv4095 conn=wye bus1=p1rlv4095.1.2 kV=0.2080002494301389 Vminpu=0.8 Vmaxpu=1.2 model=1 kW=5.44005 kvar=1.0989433780109366 Phases=2

New Load.load_p1rlv4096 conn=wye bus1=p1rlv4096.1.2 kV=0.2080002494301389 Vminpu=0.8 Vmaxpu=1.2 model=1 kW=5.890060000000001 kvar=1.199106114871181 Phases=2

New Load.load_p1rlv4112 conn=wye bus1=p1rlv4112.1.2 kV=0.2080002494301389 Vminpu=0.8 Vmaxpu=1.2 model=1 kW=6.64007 kvar=1.3483237207160328 Phases=2

New Load.load_p1rlv4141 conn=wye bus1=p1rlv4141.1.2 kV=0.2080002494301389 Vminpu=0.8 Vmaxpu=1.2 model=1 kW=5.090050000000001 kvar=1.0309123903570856 Phases=2

New Load.load_p1rlv4142 conn=wye bus1=p1rlv4142.1.2 kV=0.2080002494301389 Vminpu=0.8 Vmaxpu=1.2 model=1 kW=8.04008 kvar=2.639792349845716 Phases=2

New Load.load_p1rlv4143 conn=wye bus1=p1rlv4143.1.2 kV=0.2080002494301389 Vminpu=0.8 Vmaxpu=1.2 model=1 kW=5.11005 kvar=1.0403106593646716 Phases=2

New Load.load_p1rlv4220 conn=wye bus1=p1rlv4220.1.2 kV=0.2080002494301389 Vminpu=0.8 Vmaxpu=1.2 model=1 kW=5.74006 kvar=1.1685689187762893 Phases=2

New Load.load_p1rlv4221 conn=wye bus1=p1rlv4221.1.2 kV=0.2080002494301389 Vminpu=0.8 Vmaxpu=1.2 model=1 kW=14.170100000000001 kvar=2.877361527049904 Phases=2

New Load.load_p1rlv4223 conn=wye bus1=p1rlv4223.1.2 kV=0.2080002494301389 Vminpu=0.8 Vmaxpu=1.2 model=1 kW=6.89007 kvar=2.2695427124887178 Phases=2

New Load.load_p1rlv4371 conn=wye bus1=p1rlv4371.1.2.3 kV=0.48 Vminpu=0.8 Vmaxpu=1.2 model=1 kW=98.37099999999998 kvar=19.975083505227634 Phases=3

New Load.load_p1rlv4372 conn=wye bus1=p1rlv4372.1.2 kV=0.2080002494301389 Vminpu=0.8 Vmaxpu=1.2 model=1 kW=15.3502 kvar=5.039917579004401 Phases=2

New Load.load_p1rlv4374 conn=wye bus1=p1rlv4374.1.2 kV=0.2080002494301389 Vminpu=0.8 Vmaxpu=1.2 model=1 kW=3.76004 kvar=0.7595649045608481 Phases=2

New Load.load_p1rlv4375 conn=wye bus1=p1rlv4375.1.2 kV=0.2080002494301389 Vminpu=0.8 Vmaxpu=1.2 model=1 kW=5.810060000000001 kvar=1.1797830018032032 Phases=2

New Load.load_p1rlv4393 conn=wye bus1=p1rlv4393.1.2 kV=0.2080002494301389 Vminpu=0.8 Vmaxpu=1.2 model=1 kW=5.70006 kvar=1.1604256664843182 Phases=2

New Load.load_p1rlv4428 conn=wye bus1=p1rlv4428.1.2 kV=0.2080002494301389 Vminpu=0.8 Vmaxpu=1.2 model=1 kW=5.850060000000001 kvar=1.19096286257921 Phases=2

New Load.load_p1rlv4429 conn=wye bus1=p1rlv4429.1.2 kV=0.2080002494301389 Vminpu=0.8 Vmaxpu=1.2 model=1 kW=5.37005 kvar=1.0904351605376348 Phases=2

New Load.load_p1rlv4513 conn=wye bus1=p1rlv4513.1.2 kV=0.2080002494301389 Vminpu=0.8 Vmaxpu=1.2 model=1 kW=5.43005 kvar=1.7809144181708902 Phases=2

New Load.load_p1rlv4514 conn=wye bus1=p1rlv4514.1.2 kV=0.2080002494301389 Vminpu=0.8 Vmaxpu=1.2 model=1 kW=4.33004 kvar=1.4201399006006727 Phases=2

New Load.load_p1rlv4562 conn=wye bus1=p1rlv4562.1.2 kV=0.2080002494301389 Vminpu=0.8 Vmaxpu=1.2 model=1 kW=6.71007 kvar=1.3590228589431081 Phases=2

New Load.load_p1rlv4563 conn=wye bus1=p1rlv4563.1.2 kV=0.2080002494301389 Vminpu=0.8 Vmaxpu=1.2 model=1 kW=6.46006 kvar=1.30838712713042 Phases=2

New Load.load_p1rlv4564 conn=wye bus1=p1rlv4564.1.2 kV=0.2080002494301389 Vminpu=0.8 Vmaxpu=1.2 model=1 kW=2.46002 kvar=0.8103140408699036 Phases=2

New Load.load_p1rlv4657 conn=wye bus1=p1rlv4657.1.2 kV=0.2080002494301389 Vminpu=0.8 Vmaxpu=1.2 model=1 kW=9.43009 kvar=3.099520693406146 Phases=2

New Load.load_p1rlv4658 conn=wye bus1=p1rlv4658.1.2 kV=0.2080002494301389 Vminpu=0.8 Vmaxpu=1.2 model=1 kW=4.590050000000001 kvar=1.5103046561324864 Phases=2

New Load.load_p1rlv4659 conn=wye bus1=p1rlv4659.1.2 kV=0.2080002494301389 Vminpu=0.8 Vmaxpu=1.2 model=1 kW=5.04005 kvar=1.0207856490641993 Phases=2

New Load.load_p1rlv4809 conn=wye bus1=p1rlv4809.1.2 kV=0.2080002494301389 Vminpu=0.8 Vmaxpu=1.2 model=1 kW=6.23006 kvar=1.271572534701827 Phases=2

New Load.load_p1rlv4810 conn=wye bus1=p1rlv4810.1.2 kV=0.2080002494301389 Vminpu=0.8 Vmaxpu=1.2 model=1 kW=1.66002 kvar=0.5497347121173938 Phases=2

New Load.load_p1rlv4811 conn=wye bus1=p1rlv4811.1.2 kV=0.2080002494301389 Vminpu=0.8 Vmaxpu=1.2 model=1 kW=14.5301 kvar=2.9504626448781455 Phases=2

New Load.load_p1rlv4813 conn=wye bus1=p1rlv4813.1.2 kV=0.2080002494301389 Vminpu=0.8 Vmaxpu=1.2 model=1 kW=5.15005 kvar=1.0511394966246144 Phases=2

New Load.load_p1rlv4814 conn=wye bus1=p1rlv4814.1.2 kV=0.2080002494301389 Vminpu=0.8 Vmaxpu=1.2 model=1 kW=4.38004 kvar=1.4396495280476276 Phases=2

New Load.load_p1rlv4815 conn=wye bus1=p1rlv4815.1.2 kV=0.2080002494301389 Vminpu=0.8 Vmaxpu=1.2 model=1 kW=6.75007 kvar=1.3706601733857733 Phases=2

New Load.load_p1rlv4859 conn=wye bus1=p1rlv4859.1.2 kV=0.2080002494301389 Vminpu=0.8 Vmaxpu=1.2 model=1 kW=0.550006 kvar=0.1799963431550359 Phases=2

New Load.load_p1rlv4948 conn=wye bus1=p1rlv4948.1.2 kV=0.2080002494301389 Vminpu=0.8 Vmaxpu=1.2 model=1 kW=7.52008 kvar=2.4690612101157914 Phases=2

New Load.load_p1rlv4950 conn=wye bus1=p1rlv4950.1.2 kV=0.2080002494301389 Vminpu=0.8 Vmaxpu=1.2 model=1 kW=4.89005 kvar=0.9904054251855413 Phases=2

New Load.load_p1rlv4951 conn=wye bus1=p1rlv4951.1.2 kV=0.2080002494301389 Vminpu=0.8 Vmaxpu=1.2 model=1 kW=2.52003 kvar=0.510393837206229 Phases=2

New Load.load_p1rlv5068 conn=wye bus1=p1rlv5068.1.2.3 kV=0.48 Vminpu=0.8 Vmaxpu=1.2 model=1 kW=91.5609 kvar=18.592233720444003 Phases=3

New Load.load_p1rlv5069 conn=wye bus1=p1rlv5069.1.2.3 kV=0.48 Vminpu=0.8 Vmaxpu=1.2 model=1 kW=20.0002 kvar=6.566647963127767 Phases=3

New Load.load_p1rlv5070 conn=wye bus1=p1rlv5070.1.2 kV=0.2080002494301389 Vminpu=0.8 Vmaxpu=1.2 model=1 kW=2.61003 kvar=0.8597263258394949 Phases=2

New Load.load_p1rlv5071 conn=wye bus1=p1rlv5071.1.2 kV=0.2080002494301389 Vminpu=0.8 Vmaxpu=1.2 model=1 kW=7.14007 kvar=1.449853051033035 Phases=2

New Load.load_p1rlv5072 conn=wye bus1=p1rlv5072.1.2 kV=0.2080002494301389 Vminpu=0.8 Vmaxpu=1.2 model=1 kW=7.98008 kvar=1.6204243565522047 Phases=2

New Load.load_p1rlv5115 conn=wye bus1=p1rlv5115.1.2 kV=0.2080002494301389 Vminpu=0.8 Vmaxpu=1.2 model=1 kW=3.15003 kvar=0.6396408727569326 Phases=2

New Load.load_p1rlv5185 conn=wye bus1=p1rlv5185.1.2.3 kV=0.48 Vminpu=0.8 Vmaxpu=1.2 model=1 kW=52.5005 kvar=17.256079863942904 Phases=3
