Clear

New Circuit.substation_p1uhs24_69 bus1=p1uhs24_69 pu=1.0 basekV=69.0 R1=1e-05 X1=1e-05 R0=1e-05 X0=1e-05

Redirect Transformers.dss
Redirect p1uhs24_1247--p1umv22/Transformers.dss
Redirect p1uhs24_1247--p1umv26/Transformers.dss
Redirect Regulators.dss
Redirect p1uhs24_1247--p1umv22/Loads.dss
Redirect p1uhs24_1247--p1umv26/Loads.dss
Redirect LineCodes.dss
Redirect p1uhs24_1247--p1umv22/LineCodes.dss
Redirect p1uhs24_1247--p1umv26/LineCodes.dss
Redirect Lines.dss
Redirect p1uhs24_1247--p1umv22/Lines.dss
Redirect p1uhs24_1247--p1umv26/Lines.dss

Set Voltagebases=[0.2080002494301389, 7.199560000000001, 12.47, 69.0]

Calcvoltagebases

Buscoords Buscoords.dss

Solve