Clear

New Circuit.substation_p3uhs5_69 bus1=p3uhs5_69 pu=1.0 basekV=69.0 R1=1e-05 X1=1e-05 R0=1e-05 X0=1e-05

Redirect Transformers.dss
Redirect p3uhs5_1247--p3udt15899/Transformers.dss
Redirect p3uhs5_1247--p3udt17790/Transformers.dss
Redirect p3uhs5_1247--p3udt31388/Transformers.dss
Redirect p3uhs5_1247--p3udt10526/Transformers.dss
Redirect Regulators.dss
Redirect p3uhs5_1247--p3udt15899/Loads.dss
Redirect p3uhs5_1247--p3udt10526/Loads.dss
Redirect p3uhs5_1247--p3udt17790/Loads.dss
Redirect p3uhs5_1247--p3udt31388/Loads.dss
Redirect LineCodes.dss
Redirect p3uhs5_1247--p3udt15899/LineCodes.dss
Redirect p3uhs5_1247--p3udt17790/LineCodes.dss
Redirect p3uhs5_1247--p3udt31388/LineCodes.dss
Redirect p3uhs5_1247--p3udt10526/LineCodes.dss
Redirect Lines.dss
Redirect p3uhs5_1247--p3udt15899/Lines.dss
Redirect p3uhs5_1247--p3udt17790/Lines.dss
Redirect p3uhs5_1247--p3udt31388/Lines.dss
Redirect p3uhs5_1247--p3udt10526/Lines.dss
Redirect p3uhs5_1247--p3udt15899/Capacitors.dss
Redirect p3uhs5_1247--p3udt17790/Capacitors.dss
Redirect p3uhs5_1247--p3udt10526/Capacitors.dss

Set Voltagebases=[0.2080002494301389, 0.48, 7.199560000000001, 12.47, 69.0]

Calcvoltagebases

Buscoords Buscoords.dss

Solve