Clear

New Circuit.substation_p3uhs10_69 bus1=p3uhs10_69 pu=1.0 basekV=69.0 R1=1e-05 X1=1e-05 R0=1e-05 X0=1e-05

Redirect Transformers.dss
Redirect p3uhs10_1247--p3udt18580/Transformers.dss
Redirect p3uhs10_1247--p3udt19559/Transformers.dss
Redirect p3uhs10_1247--p3udt7392/Transformers.dss
Redirect p3uhs10_1247--p3udt19881/Transformers.dss
Redirect Regulators.dss
Redirect p3uhs10_1247--p3udt19559/Loads.dss
Redirect p3uhs10_1247--p3udt19881/Loads.dss
Redirect p3uhs10_1247--p3udt7392/Loads.dss
Redirect p3uhs10_1247--p3udt18580/Loads.dss
Redirect LineCodes.dss
Redirect p3uhs10_1247--p3udt18580/LineCodes.dss
Redirect p3uhs10_1247--p3udt19559/LineCodes.dss
Redirect p3uhs10_1247--p3udt7392/LineCodes.dss
Redirect p3uhs10_1247--p3udt19881/LineCodes.dss
Redirect Lines.dss
Redirect p3uhs10_1247--p3udt18580/Lines.dss
Redirect p3uhs10_1247--p3udt19559/Lines.dss
Redirect p3uhs10_1247--p3udt7392/Lines.dss
Redirect p3uhs10_1247--p3udt19881/Lines.dss
Redirect p3uhs10_1247--p3udt7392/Capacitors.dss
Redirect p3uhs10_1247--p3udt19559/Capacitors.dss
Redirect p3uhs10_1247--p3udt19881/Capacitors.dss
Redirect p3uhs10_1247--p3udt18580/Capacitors.dss

Set Voltagebases=[0.2080002494301389, 0.48, 7.199560000000001, 12.47, 69.0]

Calcvoltagebases

Buscoords Buscoords.dss

Solve