New Line.l(r:p1rdm44-p1rlv24) Units=km Length=0.0160729 bus1=p1rdm44.1.2 bus2=p1rlv24.1.2 switch=n enabled=y phases=2 Linecode=1P_OH_AL_2/0_Rucina_0_416_0_2_2_2_2_2_2_2_2_2_2_2_2_2_2_2_2_2_2_2_2_2_2_2_2_2_2_2_2_2

New Line.l(r:p1rdm44-p1rdt23lv) Units=km Length=0.0261388 bus1=p1rdt23lv.1.2 bus2=p1rdm44.1.2 switch=n enabled=y phases=2 Linecode=1P_OH_AL_2/0_Rucina_0_416_0_2_2_2_2_2_2_2_2_2_2_2_2_2_2_2_2_2_2_2_2_2_2_2_2_2_2_2_2_2

New Line.l(r:p1rdm45-p1rlv1359) Units=km Length=0.0278834 bus1=p1rdm45.1.2 bus2=p1rlv1359.1.2 switch=n enabled=y phases=2 Linecode=1P_OH_AL_4/0_Zuzara_0_416_0_2_2_2_2_2_2_2_2_2_2_2_2_2_2_2_2_2_2_2_2_2_2_2_2_2_2_2_2_2

New Line.l(r:p1rdm45-p1rdt23lv) Units=km Length=0.0354686 bus1=p1rdt23lv.1.2 bus2=p1rdm45.1.2 switch=n enabled=y phases=2 Linecode=1P_OH_AL_4/0_Zuzara_0_416_0_2_2_2_2_2_2_2_2_2_2_2_2_2_2_2_2_2_2_2_2_2_2_2_2_2_2_2_2_2

New Line.l(r:p1rdt26lv-p1rlv1226) Units=km Length=0.025008300000000004 bus1=p1rdt26lv.1.2 bus2=p1rlv1226.1.2 switch=n enabled=y phases=2 Linecode=1P_OH_AL_2/0_Rucina_0_416_0_2_2_2_2_2_2_2_2_2_2_2_2_2_2_2_2_2_2_2_2_2_2_2_2_2_2_2_2_2

New Line.l(r:p1rdt26lv-p1rlv1512) Units=km Length=0.0280908 bus1=p1rdt26lv.1.2 bus2=p1rlv1512.1.2 switch=n enabled=y phases=2 Linecode=1P_OH_AL_4/0_Zuzara_0_416_0_2_2_2_2_2_2_2_2_2_2_2_2_2_2_2_2_2_2_2_2_2_2_2_2_2_2_2_2_2

New Line.l(r:p1rdt26lv-p1rlv5539) Units=km Length=0.027713 bus1=p1rdt26lv.1.2 bus2=p1rlv5539.1.2 switch=n enabled=y phases=2 Linecode=1P_OH_AL_4/0_Zuzara_0_416_0_2_2_2_2_2_2_2_2_2_2_2_2_2_2_2_2_2_2_2_2_2_2_2_2_2_2_2_2_2

New Line.l(r:p1rdt26lv-p1rlv10055) Units=km Length=0.0255101 bus1=p1rdt26lv.1.2 bus2=p1rlv10055.1.2 switch=n enabled=y phases=2 Linecode=1P_OH_AL_2/0_Rucina_0_416_0_2_2_2_2_2_2_2_2_2_2_2_2_2_2_2_2_2_2_2_2_2_2_2_2_2_2_2_2_2

New Line.l(r:p1rdm50-p1rlv27) Units=km Length=0.0188248 bus1=p1rdm50.1.2 bus2=p1rlv27.1.2 switch=n enabled=y phases=2 Linecode=1P_OH_AL_2/0_Rucina_0_416_0_2_2_2_2_2_2_2_2_2_2_2_2_2_2_2_2_2_2_2_2_2_2_2_2_2_2_2_2_2

New Line.l(r:p1rdm50-p1rdt26lv) Units=km Length=0.0133961 bus1=p1rdt26lv.1.2 bus2=p1rdm50.1.2 switch=n enabled=y phases=2 Linecode=1P_OH_AL_2/0_Rucina_0_416_0_2_2_2_2_2_2_2_2_2_2_2_2_2_2_2_2_2_2_2_2_2_2_2_2_2_2_2_2_2

New Line.l(r:p1rdt27lv-p1rlv28) Units=km Length=0.001 bus1=p1rdt27lv.1.2 bus2=p1rlv28.1.2 switch=n enabled=y phases=2 Linecode=1P_OH_AL_4_Periwinkle_0_416_0_2_2_2_2_2_2_2_2_2_2_2_2_2_2_2_2_2_2_2_2_2_2_2_2_2_2_2_2_2

New Line.l(r:p1rdt146lv-p1rlv150) Units=km Length=0.0367197 bus1=p1rdt146lv.1.2 bus2=p1rlv150.1.2 switch=n enabled=y phases=2 Linecode=1P_OH_AL_4/0_Zuzara_0_416_0_2_2_2_2_2_2_2_2_2_2_2_2_2_2_2_2_2_2_2_2_2_2_2_2_2_2_2_2_2

New Line.l(r:p1rdt146lv-p1rlv2583) Units=km Length=0.0403801 bus1=p1rdt146lv.1.2 bus2=p1rlv2583.1.2 switch=n enabled=y phases=2 Linecode=1P_OH_AL_4/0_Zuzara_0_416_0_2_2_2_2_2_2_2_2_2_2_2_2_2_2_2_2_2_2_2_2_2_2_2_2_2_2_2_2_2

New Line.l(r:p1rdt146lv-p1rlv12233) Units=km Length=0.053038400000000006 bus1=p1rdt146lv.1.2 bus2=p1rlv12233.1.2 switch=n enabled=y phases=2 Linecode=1P_OH_AL_4/0_Zuzara_0_416_0_2_2_2_2_2_2_2_2_2_2_2_2_2_2_2_2_2_2_2_2_2_2_2_2_2_2_2_2_2

New Line.l(r:p1rdm355-p1rlv151) Units=km Length=0.0615809 bus1=p1rdm355.1.2 bus2=p1rlv151.1.2 switch=n enabled=y phases=2 Linecode=1P_OH_AL_4/0_Zuzara_0_416_0_2_2_2_2_2_2_2_2_2_2_2_2_2_2_2_2_2_2_2_2_2_2_2_2_2_2_2_2_2

New Line.l(r:p1rdm355-p1rdt147lv) Units=km Length=0.0386703 bus1=p1rdt147lv.1.2 bus2=p1rdm355.1.2 switch=n enabled=y phases=2 Linecode=1P_OH_AL_4/0_Zuzara_0_416_0_2_2_2_2_2_2_2_2_2_2_2_2_2_2_2_2_2_2_2_2_2_2_2_2_2_2_2_2_2

New Line.l(r:p1rdm356-p1rlv7089) Units=km Length=0.007632150000000001 bus1=p1rdm356.1.2 bus2=p1rlv7089.1.2 switch=n enabled=y phases=2 Linecode=1P_OH_AL_2/0_Rucina_0_416_0_2_2_2_2_2_2_2_2_2_2_2_2_2_2_2_2_2_2_2_2_2_2_2_2_2_2_2_2_2

New Line.l(r:p1rdm357-p1rlv11828) Units=km Length=0.00106024 bus1=p1rdm357.1.2 bus2=p1rlv11828.1.2 switch=n enabled=y phases=2 Linecode=1P_OH_AL_4_Periwinkle_0_416_0_2_2_2_2_2_2_2_2_2_2_2_2_2_2_2_2_2_2_2_2_2_2_2_2_2_2_2_2_2

New Line.l(r:p1rdm356-p1rdm357) Units=km Length=0.0317111 bus1=p1rdm356.1.2 bus2=p1rdm357.1.2 switch=n enabled=y phases=2 Linecode=1P_OH_AL_4/0_Zuzara_0_416_0_2_2_2_2_2_2_2_2_2_2_2_2_2_2_2_2_2_2_2_2_2_2_2_2_2_2_2_2_2

New Line.l(r:p1rdm356-p1rdt147lv) Units=km Length=0.019337 bus1=p1rdt147lv.1.2 bus2=p1rdm356.1.2 switch=n enabled=y phases=2 Linecode=1P_OH_AL_2/0_Rucina_0_416_0_2_2_2_2_2_2_2_2_2_2_2_2_2_2_2_2_2_2_2_2_2_2_2_2_2_2_2_2_2

New Line.l(r:p1rdm360-p1rlv153) Units=km Length=0.0270512 bus1=p1rdm360.1.2 bus2=p1rlv153.1.2 switch=n enabled=y phases=2 Linecode=1P_UG_AL_1/0_Brenau_0_416_0_2_2_2_2_2_2_2_2_2_2_2_2_2_2_2_2_2_2_2_2_2_2_2_2_2_2_2_2_2

New Line.l(r:p1rdm360-p1rdt149lv) Units=km Length=0.0398739 bus1=p1rdt149lv.1.2 bus2=p1rdm360.1.2 switch=n enabled=y phases=2 Linecode=1P_UG_AL_1/0_Brenau_0_416_0_2_2_2_2_2_2_2_2_2_2_2_2_2_2_2_2_2_2_2_2_2_2_2_2_2_2_2_2_2

New Line.l(r:p1rdm361-p1rlv13796) Units=km Length=0.0184597 bus1=p1rdm361.1.2 bus2=p1rlv13796.1.2 switch=n enabled=y phases=2 Linecode=1P_UG_AL_1/0_Brenau_0_416_0_2_2_2_2_2_2_2_2_2_2_2_2_2_2_2_2_2_2_2_2_2_2_2_2_2_2_2_2_2

New Line.l(r:p1rdm361-p1rdt149lv) Units=km Length=0.049837 bus1=p1rdt149lv.1.2 bus2=p1rdm361.1.2 switch=n enabled=y phases=2 Linecode=1P_UG_AL_1/0_Brenau_0_416_0_2_2_2_2_2_2_2_2_2_2_2_2_2_2_2_2_2_2_2_2_2_2_2_2_2_2_2_2_2

New Line.l(r:p1rdt281lv-p1rlv289) Units=km Length=0.001 bus1=p1rdt281lv.1.2 bus2=p1rlv289.1.2 switch=n enabled=y phases=2 Linecode=1P_OH_AL_4_Periwinkle_0_416_0_2_2_2_2_2_2_2_2_2_2_2_2_2_2_2_2_2_2_2_2_2_2_2_2_2_2_2_2_2

New Line.l(r:p1rdt286lv-p1rlv294) Units=km Length=0.0093155 bus1=p1rdt286lv.1.2 bus2=p1rlv294.1.2 switch=n enabled=y phases=2 Linecode=1P_OH_AL_2/0_Rucina_0_416_0_2_2_2_2_2_2_2_2_2_2_2_2_2_2_2_2_2_2_2_2_2_2_2_2_2_2_2_2_2

New Line.l(r:p1rdt286lv-p1rlv4468) Units=km Length=0.0093155 bus1=p1rdt286lv.1.2 bus2=p1rlv4468.1.2 switch=n enabled=y phases=2 Linecode=1P_OH_AL_2/0_Rucina_0_416_0_2_2_2_2_2_2_2_2_2_2_2_2_2_2_2_2_2_2_2_2_2_2_2_2_2_2_2_2_2

New Line.l(r:p1rdt287lv-p1rlv295) Units=km Length=0.001 bus1=p1rdt287lv.1.2 bus2=p1rlv295.1.2 switch=n enabled=y phases=2 Linecode=1P_OH_AL_4_Periwinkle_0_416_0_2_2_2_2_2_2_2_2_2_2_2_2_2_2_2_2_2_2_2_2_2_2_2_2_2_2_2_2_2

New Line.l(r:p1rdt406lv-p1rlv4168) Units=km Length=0.0475213 bus1=p1rdt406lv.1.2 bus2=p1rlv4168.1.2 switch=n enabled=y phases=2 Linecode=1P_OH_AL_4/0_Zuzara_0_416_0_2_2_2_2_2_2_2_2_2_2_2_2_2_2_2_2_2_2_2_2_2_2_2_2_2_2_2_2_2

New Line.l(r:p1rdm953-p1rlv415) Units=km Length=0.0651239 bus1=p1rdm953.1.2 bus2=p1rlv415.1.2 switch=n enabled=y phases=2 Linecode=1P_OH_AL_4/0_Zuzara_0_416_0_2_2_2_2_2_2_2_2_2_2_2_2_2_2_2_2_2_2_2_2_2_2_2_2_2_2_2_2_2

New Line.l(r:p1rdm953-p1rlv1762) Units=km Length=0.0377132 bus1=p1rdm953.1.2 bus2=p1rlv1762.1.2 switch=n enabled=y phases=2 Linecode=1P_OH_AL_4/0_Zuzara_0_416_0_2_2_2_2_2_2_2_2_2_2_2_2_2_2_2_2_2_2_2_2_2_2_2_2_2_2_2_2_2

New Line.l(r:p1rdm955-p1rlv3792) Units=km Length=0.0225347 bus1=p1rdm955.1.2 bus2=p1rlv3792.1.2 switch=n enabled=y phases=2 Linecode=1P_OH_AL_2/0_Rucina_0_416_0_2_2_2_2_2_2_2_2_2_2_2_2_2_2_2_2_2_2_2_2_2_2_2_2_2_2_2_2_2

New Line.l(r:p1rdm953-p1rdm955) Units=km Length=0.0187443 bus1=p1rdm953.1.2 bus2=p1rdm955.1.2 switch=n enabled=y phases=2 Linecode=1P_OH_AL_2/0_Rucina_0_416_0_2_2_2_2_2_2_2_2_2_2_2_2_2_2_2_2_2_2_2_2_2_2_2_2_2_2_2_2_2

New Line.l(r:p1rdm953-p1rdt406lv) Units=km Length=0.0187443 bus1=p1rdt406lv.1.2 bus2=p1rdm953.1.2 switch=n enabled=y phases=2 Linecode=1P_OH_AL_2/0_Rucina_0_416_0_2_2_2_2_2_2_2_2_2_2_2_2_2_2_2_2_2_2_2_2_2_2_2_2_2_2_2_2_2

New Line.l(r:p1rdm957-p1rlv9765) Units=km Length=0.0119186 bus1=p1rdm957.1.2 bus2=p1rlv9765.1.2 switch=n enabled=y phases=2 Linecode=1P_OH_AL_2/0_Rucina_0_416_0_2_2_2_2_2_2_2_2_2_2_2_2_2_2_2_2_2_2_2_2_2_2_2_2_2_2_2_2_2

New Line.l(r:p1rdm957-p1rdt406lv) Units=km Length=0.0743009 bus1=p1rdt406lv.1.2 bus2=p1rdm957.1.2 switch=n enabled=y phases=2 Linecode=1P_OH_AL_4/0_Zuzara_0_416_0_2_2_2_2_2_2_2_2_2_2_2_2_2_2_2_2_2_2_2_2_2_2_2_2_2_2_2_2_2

New Line.l(r:p1rdt407lv-p1rlv8169) Units=km Length=0.0158677 bus1=p1rdt407lv.1.2 bus2=p1rlv8169.1.2 switch=n enabled=y phases=2 Linecode=1P_OH_AL_2/0_Rucina_0_416_0_2_2_2_2_2_2_2_2_2_2_2_2_2_2_2_2_2_2_2_2_2_2_2_2_2_2_2_2_2

New Line.l(r:p1rdt407lv-p1rlv9766) Units=km Length=0.0156002 bus1=p1rdt407lv.1.2 bus2=p1rlv9766.1.2 switch=n enabled=y phases=2 Linecode=1P_OH_AL_2/0_Rucina_0_416_0_2_2_2_2_2_2_2_2_2_2_2_2_2_2_2_2_2_2_2_2_2_2_2_2_2_2_2_2_2

New Line.l(r:p1rdm958-p1rlv416) Units=km Length=0.0178925 bus1=p1rdm958.1.2 bus2=p1rlv416.1.2 switch=n enabled=y phases=2 Linecode=1P_OH_AL_2/0_Rucina_0_416_0_2_2_2_2_2_2_2_2_2_2_2_2_2_2_2_2_2_2_2_2_2_2_2_2_2_2_2_2_2

New Line.l(r:p1rdm958-p1rdt407lv) Units=km Length=0.0171368 bus1=p1rdt407lv.1.2 bus2=p1rdm958.1.2 switch=n enabled=y phases=2 Linecode=1P_OH_AL_2/0_Rucina_0_416_0_2_2_2_2_2_2_2_2_2_2_2_2_2_2_2_2_2_2_2_2_2_2_2_2_2_2_2_2_2

New Line.l(r:p1rdt534lv-p1rlv547) Units=km Length=0.001 bus1=p1rdt534lv.1.2 bus2=p1rlv547.1.2 switch=n enabled=y phases=2 Linecode=1P_OH_AL_4_Periwinkle_0_416_0_2_2_2_2_2_2_2_2_2_2_2_2_2_2_2_2_2_2_2_2_2_2_2_2_2_2_2_2_2

New Line.l(r:p1rdt536lv-p1rlv11535) Units=km Length=0.0797537 bus1=p1rdt536lv.1.2 bus2=p1rlv11535.1.2 switch=n enabled=y phases=2 Linecode=1P_OH_AL_4/0_Zuzara_0_416_0_2_2_2_2_2_2_2_2_2_2_2_2_2_2_2_2_2_2_2_2_2_2_2_2_2_2_2_2_2

New Line.l(r:p1rdm1253-p1rlv549) Units=km Length=0.110192 bus1=p1rdm1253.1.2 bus2=p1rlv549.1.2 switch=n enabled=y phases=2 Linecode=1P_OH_AL_4/0_Zuzara_0_416_0_2_2_2_2_2_2_2_2_2_2_2_2_2_2_2_2_2_2_2_2_2_2_2_2_2_2_2_2_2

New Line.l(r:p1rdm1253-p1rdt536lv) Units=km Length=0.006336 bus1=p1rdt536lv.1.2 bus2=p1rdm1253.1.2 switch=n enabled=y phases=2 Linecode=1P_OH_AL_2/0_Rucina_0_416_0_2_2_2_2_2_2_2_2_2_2_2_2_2_2_2_2_2_2_2_2_2_2_2_2_2_2_2_2_2

New Line.l(r:p1rdt658lv-p1rlv680) Units=km Length=0.083349 bus1=p1rdt658lv.1.2 bus2=p1rlv680.1.2 switch=n enabled=y phases=2 Linecode=1P_OH_AL_4/0_Zuzara_0_416_0_2_2_2_2_2_2_2_2_2_2_2_2_2_2_2_2_2_2_2_2_2_2_2_2_2_2_2_2_2

New Line.l(r:p1rdt659lv-p1rlv681) Units=km Length=0.03496010000000001 bus1=p1rdt659lv.1.2 bus2=p1rlv681.1.2 switch=n enabled=y phases=2 Linecode=1P_OH_AL_4/0_Zuzara_0_416_0_2_2_2_2_2_2_2_2_2_2_2_2_2_2_2_2_2_2_2_2_2_2_2_2_2_2_2_2_2

New Line.l(r:p1rdt659lv-p1rlv5806) Units=km Length=0.0104755 bus1=p1rdt659lv.1.2 bus2=p1rlv5806.1.2 switch=n enabled=y phases=2 Linecode=1P_OH_AL_2/0_Rucina_0_416_0_2_2_2_2_2_2_2_2_2_2_2_2_2_2_2_2_2_2_2_2_2_2_2_2_2_2_2_2_2

New Line.l(r:p1rdt660lv-p1rlv5407) Units=km Length=0.0157159 bus1=p1rdt660lv.1.2 bus2=p1rlv5407.1.2 switch=n enabled=y phases=2 Linecode=1P_OH_AL_2/0_Rucina_0_416_0_2_2_2_2_2_2_2_2_2_2_2_2_2_2_2_2_2_2_2_2_2_2_2_2_2_2_2_2_2

New Line.l(r:p1rdm1521-p1rlv683) Units=km Length=0.0240385 bus1=p1rdm1521.1.2 bus2=p1rlv683.1.2 switch=n enabled=y phases=2 Linecode=1P_OH_AL_2/0_Rucina_0_416_0_2_2_2_2_2_2_2_2_2_2_2_2_2_2_2_2_2_2_2_2_2_2_2_2_2_2_2_2_2

New Line.l(r:p1rdm1521-p1rdt660lv) Units=km Length=0.0103655 bus1=p1rdt660lv.1.2 bus2=p1rdm1521.1.2 switch=n enabled=y phases=2 Linecode=1P_OH_AL_2/0_Rucina_0_416_0_2_2_2_2_2_2_2_2_2_2_2_2_2_2_2_2_2_2_2_2_2_2_2_2_2_2_2_2_2

New Line.l(r:p1rdt662lv-p1rlv685) Units=km Length=0.019317 bus1=p1rdt662lv.1.2 bus2=p1rlv685.1.2 switch=n enabled=y phases=2 Linecode=1P_OH_AL_2/0_Rucina_0_416_0_2_2_2_2_2_2_2_2_2_2_2_2_2_2_2_2_2_2_2_2_2_2_2_2_2_2_2_2_2

New Line.l(r:p1rdt662lv-p1rlv4309) Units=km Length=0.0163205 bus1=p1rdt662lv.1.2 bus2=p1rlv4309.1.2 switch=n enabled=y phases=2 Linecode=1P_OH_AL_2/0_Rucina_0_416_0_2_2_2_2_2_2_2_2_2_2_2_2_2_2_2_2_2_2_2_2_2_2_2_2_2_2_2_2_2

New Line.l(r:p1rdm1528-p1rlv9634) Units=km Length=0.0156317 bus1=p1rdm1528.1.2 bus2=p1rlv9634.1.2 switch=n enabled=y phases=2 Linecode=1P_OH_AL_2/0_Rucina_0_416_0_2_2_2_2_2_2_2_2_2_2_2_2_2_2_2_2_2_2_2_2_2_2_2_2_2_2_2_2_2

New Line.l(r:p1rdm1528-p1rdt662lv) Units=km Length=0.0138779 bus1=p1rdt662lv.1.2 bus2=p1rdm1528.1.2 switch=n enabled=y phases=2 Linecode=1P_OH_AL_2/0_Rucina_0_416_0_2_2_2_2_2_2_2_2_2_2_2_2_2_2_2_2_2_2_2_2_2_2_2_2_2_2_2_2_2

New Line.l(r:p1rdt808lv-p1rlv844) Units=km Length=0.0418243 bus1=p1rdt808lv.1.2 bus2=p1rlv844.1.2 switch=n enabled=y phases=2 Linecode=1P_OH_AL_4/0_Zuzara_0_416_0_2_2_2_2_2_2_2_2_2_2_2_2_2_2_2_2_2_2_2_2_2_2_2_2_2_2_2_2_2

New Line.l(r:p1rdt810lv-p1rlv2584) Units=km Length=0.0361058 bus1=p1rdt810lv.1.2 bus2=p1rlv2584.1.2 switch=n enabled=y phases=2 Linecode=1P_OH_AL_4/0_Zuzara_0_416_0_2_2_2_2_2_2_2_2_2_2_2_2_2_2_2_2_2_2_2_2_2_2_2_2_2_2_2_2_2

New Line.l(r:p1rdm1839-p1rlv846) Units=km Length=0.0265957 bus1=p1rdm1839.1.2 bus2=p1rlv846.1.2 switch=n enabled=y phases=2 Linecode=1P_OH_AL_2/0_Rucina_0_416_0_2_2_2_2_2_2_2_2_2_2_2_2_2_2_2_2_2_2_2_2_2_2_2_2_2_2_2_2_2

New Line.l(r:p1rdm1839-p1rdt810lv) Units=km Length=0.0184705 bus1=p1rdt810lv.1.2 bus2=p1rdm1839.1.2 switch=n enabled=y phases=2 Linecode=1P_OH_AL_2/0_Rucina_0_416_0_2_2_2_2_2_2_2_2_2_2_2_2_2_2_2_2_2_2_2_2_2_2_2_2_2_2_2_2_2

New Line.l(r:p1rdt811lv-p1rlv847) Units=km Length=0.0199553 bus1=p1rdt811lv.1.2 bus2=p1rlv847.1.2 switch=n enabled=y phases=2 Linecode=1P_OH_AL_2/0_Rucina_0_416_0_2_2_2_2_2_2_2_2_2_2_2_2_2_2_2_2_2_2_2_2_2_2_2_2_2_2_2_2_2

New Line.l(r:p1rdt811lv-p1rlv9226) Units=km Length=0.0199553 bus1=p1rdt811lv.1.2 bus2=p1rlv9226.1.2 switch=n enabled=y phases=2 Linecode=1P_OH_AL_2/0_Rucina_0_416_0_2_2_2_2_2_2_2_2_2_2_2_2_2_2_2_2_2_2_2_2_2_2_2_2_2_2_2_2_2

New Line.l(r:p1rdt813lv-p1rlv8833) Units=km Length=0.0429976 bus1=p1rdt813lv.1.2 bus2=p1rlv8833.1.2 switch=n enabled=y phases=2 Linecode=1P_OH_AL_4/0_Zuzara_0_416_0_2_2_2_2_2_2_2_2_2_2_2_2_2_2_2_2_2_2_2_2_2_2_2_2_2_2_2_2_2

New Line.l(r:p1rdt813lv-p1rlv11536) Units=km Length=0.0244986 bus1=p1rdt813lv.1.2 bus2=p1rlv11536.1.2 switch=n enabled=y phases=2 Linecode=1P_OH_AL_2/0_Rucina_0_416_0_2_2_2_2_2_2_2_2_2_2_2_2_2_2_2_2_2_2_2_2_2_2_2_2_2_2_2_2_2

New Line.l(r:p1rdm1844-p1rlv849) Units=km Length=0.0826345 bus1=p1rdm1844.1.2 bus2=p1rlv849.1.2 switch=n enabled=y phases=2 Linecode=1P_OH_AL_4/0_Zuzara_0_416_0_2_2_2_2_2_2_2_2_2_2_2_2_2_2_2_2_2_2_2_2_2_2_2_2_2_2_2_2_2

New Line.l(r:p1rdm1844-p1rdt813lv) Units=km Length=0.017052800000000003 bus1=p1rdt813lv.1.2 bus2=p1rdm1844.1.2 switch=n enabled=y phases=2 Linecode=1P_OH_AL_2/0_Rucina_0_416_0_2_2_2_2_2_2_2_2_2_2_2_2_2_2_2_2_2_2_2_2_2_2_2_2_2_2_2_2_2

New Line.l(r:p1rdt925lv-p1rlv971) Units=km Length=0.0383297 bus1=p1rdt925lv.1.2 bus2=p1rlv971.1.2 switch=n enabled=y phases=2 Linecode=1P_OH_AL_4/0_Zuzara_0_416_0_2_2_2_2_2_2_2_2_2_2_2_2_2_2_2_2_2_2_2_2_2_2_2_2_2_2_2_2_2

New Line.l(r:p1rdt925lv-p1rlv2164) Units=km Length=0.0183253 bus1=p1rdt925lv.1.2 bus2=p1rlv2164.1.2 switch=n enabled=y phases=2 Linecode=1P_OH_AL_2/0_Rucina_0_416_0_2_2_2_2_2_2_2_2_2_2_2_2_2_2_2_2_2_2_2_2_2_2_2_2_2_2_2_2_2

New Line.l(r:p1rdt925lv-p1rlv6944) Units=km Length=0.0290439 bus1=p1rdt925lv.1.2 bus2=p1rlv6944.1.2 switch=n enabled=y phases=2 Linecode=1P_OH_AL_4/0_Zuzara_0_416_0_2_2_2_2_2_2_2_2_2_2_2_2_2_2_2_2_2_2_2_2_2_2_2_2_2_2_2_2_2

New Line.l(r:p1rdt925lv-p1rlv9344) Units=km Length=0.0403387 bus1=p1rdt925lv.1.2 bus2=p1rlv9344.1.2 switch=n enabled=y phases=2 Linecode=1P_OH_AL_4/0_Zuzara_0_416_0_2_2_2_2_2_2_2_2_2_2_2_2_2_2_2_2_2_2_2_2_2_2_2_2_2_2_2_2_2

New Line.l(r:p1rdt925lv-p1rlv10042) Units=km Length=0.0493414 bus1=p1rdt925lv.1.2 bus2=p1rlv10042.1.2 switch=n enabled=y phases=2 Linecode=1P_OH_AL_4/0_Zuzara_0_416_0_2_2_2_2_2_2_2_2_2_2_2_2_2_2_2_2_2_2_2_2_2_2_2_2_2_2_2_2_2

New Line.l(r:p1rdt926lv-p1rlv972) Units=km Length=0.0417657 bus1=p1rdt926lv.1.2 bus2=p1rlv972.1.2 switch=n enabled=y phases=2 Linecode=1P_OH_AL_4/0_Zuzara_0_416_0_2_2_2_2_2_2_2_2_2_2_2_2_2_2_2_2_2_2_2_2_2_2_2_2_2_2_2_2_2

New Line.l(r:p1rdt926lv-p1rlv10043) Units=km Length=0.0417657 bus1=p1rdt926lv.1.2 bus2=p1rlv10043.1.2 switch=n enabled=y phases=2 Linecode=1P_OH_AL_4/0_Zuzara_0_416_0_2_2_2_2_2_2_2_2_2_2_2_2_2_2_2_2_2_2_2_2_2_2_2_2_2_2_2_2_2

New Line.l(r:p1rdt929lv-p1rlv975) Units=km Length=0.0708546 bus1=p1rdt929lv.1.2 bus2=p1rlv975.1.2 switch=n enabled=y phases=2 Linecode=1P_OH_AL_4/0_Zuzara_0_416_0_2_2_2_2_2_2_2_2_2_2_2_2_2_2_2_2_2_2_2_2_2_2_2_2_2_2_2_2_2

New Line.l(r:p1rdt929lv-p1rlv1757) Units=km Length=0.0364879 bus1=p1rdt929lv.1.2 bus2=p1rlv1757.1.2 switch=n enabled=y phases=2 Linecode=1P_OH_AL_4/0_Zuzara_0_416_0_2_2_2_2_2_2_2_2_2_2_2_2_2_2_2_2_2_2_2_2_2_2_2_2_2_2_2_2_2

New Line.l(r:p1rdt932lv-p1rlv978) Units=km Length=0.0108344 bus1=p1rdt932lv.1.2 bus2=p1rlv978.1.2 switch=n enabled=y phases=2 Linecode=1P_OH_AL_2/0_Rucina_0_416_0_2_2_2_2_2_2_2_2_2_2_2_2_2_2_2_2_2_2_2_2_2_2_2_2_2_2_2_2_2

New Line.l(r:p1rdt1038lv-p1rlv1096) Units=km Length=0.0517505 bus1=p1rdt1038lv.1.2 bus2=p1rlv1096.1.2 switch=n enabled=y phases=2 Linecode=1P_OH_AL_4/0_Zuzara_0_416_0_2_2_2_2_2_2_2_2_2_2_2_2_2_2_2_2_2_2_2_2_2_2_2_2_2_2_2_2_2

New Line.l(r:p1rdt1042lv-p1rlv1101) Units=km Length=0.0226458 bus1=p1rdt1042lv.1.2 bus2=p1rlv1101.1.2 switch=n enabled=y phases=2 Linecode=1P_OH_AL_2/0_Rucina_0_416_0_2_2_2_2_2_2_2_2_2_2_2_2_2_2_2_2_2_2_2_2_2_2_2_2_2_2_2_2_2

New Line.l(r:p1rdt1042lv-p1rlv1632) Units=km Length=0.0226458 bus1=p1rdt1042lv.1.2 bus2=p1rlv1632.1.2 switch=n enabled=y phases=2 Linecode=1P_OH_AL_2/0_Rucina_0_416_0_2_2_2_2_2_2_2_2_2_2_2_2_2_2_2_2_2_2_2_2_2_2_2_2_2_2_2_2_2

New Line.l(r:p1rdt1043lv-p1rlv1102) Units=km Length=0.0250043 bus1=p1rdt1043lv.1.2 bus2=p1rlv1102.1.2 switch=n enabled=y phases=2 Linecode=1P_OH_AL_2/0_Rucina_0_416_0_2_2_2_2_2_2_2_2_2_2_2_2_2_2_2_2_2_2_2_2_2_2_2_2_2_2_2_2_2

New Line.l(r:p1rdt1043lv-p1rlv9486) Units=km Length=0.0308505 bus1=p1rdt1043lv.1.2 bus2=p1rlv9486.1.2 switch=n enabled=y phases=2 Linecode=1P_OH_AL_4/0_Zuzara_0_416_0_2_2_2_2_2_2_2_2_2_2_2_2_2_2_2_2_2_2_2_2_2_2_2_2_2_2_2_2_2

New Line.l(r:p1rdt1043lv-p1rlv11147) Units=km Length=0.0538488 bus1=p1rdt1043lv.1.2 bus2=p1rlv11147.1.2 switch=n enabled=y phases=2 Linecode=1P_OH_AL_4/0_Zuzara_0_416_0_2_2_2_2_2_2_2_2_2_2_2_2_2_2_2_2_2_2_2_2_2_2_2_2_2_2_2_2_2

New Line.l(r:p1rdt1043lv-p1rlv12237) Units=km Length=0.0451307 bus1=p1rdt1043lv.1.2 bus2=p1rlv12237.1.2 switch=n enabled=y phases=2 Linecode=1P_OH_AL_4/0_Zuzara_0_416_0_2_2_2_2_2_2_2_2_2_2_2_2_2_2_2_2_2_2_2_2_2_2_2_2_2_2_2_2_2

New Line.l(r:p1rdt1044lv-p1rlv4604) Units=km Length=0.0497199 bus1=p1rdt1044lv.1.2 bus2=p1rlv4604.1.2 switch=n enabled=y phases=2 Linecode=1P_OH_AL_4/0_Zuzara_0_416_0_2_2_2_2_2_2_2_2_2_2_2_2_2_2_2_2_2_2_2_2_2_2_2_2_2_2_2_2_2

New Line.l(r:p1rdt1044lv-p1rlv10576) Units=km Length=0.05023 bus1=p1rdt1044lv.1.2 bus2=p1rlv10576.1.2 switch=n enabled=y phases=2 Linecode=1P_OH_AL_4/0_Zuzara_0_416_0_2_2_2_2_2_2_2_2_2_2_2_2_2_2_2_2_2_2_2_2_2_2_2_2_2_2_2_2_2

New Line.l(r:p1rdm2340-p1rlv1103) Units=km Length=0.0320282 bus1=p1rdm2340.1.2 bus2=p1rlv1103.1.2 switch=n enabled=y phases=2 Linecode=1P_OH_AL_4/0_Zuzara_0_416_0_2_2_2_2_2_2_2_2_2_2_2_2_2_2_2_2_2_2_2_2_2_2_2_2_2_2_2_2_2

New Line.l(r:p1rdm2340-p1rdt1044lv) Units=km Length=0.0165435 bus1=p1rdt1044lv.1.2 bus2=p1rdm2340.1.2 switch=n enabled=y phases=2 Linecode=1P_OH_AL_2/0_Rucina_0_416_0_2_2_2_2_2_2_2_2_2_2_2_2_2_2_2_2_2_2_2_2_2_2_2_2_2_2_2_2_2

New Line.l(r:p1rdt1045lv-p1rlv1104) Units=km Length=0.0225805 bus1=p1rdt1045lv.1.2 bus2=p1rlv1104.1.2 switch=n enabled=y phases=2 Linecode=1P_OH_AL_2/0_Rucina_0_416_0_2_2_2_2_2_2_2_2_2_2_2_2_2_2_2_2_2_2_2_2_2_2_2_2_2_2_2_2_2

New Line.l(r:p1rdt1158lv-p1rlv2587) Units=km Length=0.0166978 bus1=p1rdt1158lv.1.2 bus2=p1rlv2587.1.2 switch=n enabled=y phases=2 Linecode=1P_OH_AL_2/0_Rucina_0_416_0_2_2_2_2_2_2_2_2_2_2_2_2_2_2_2_2_2_2_2_2_2_2_2_2_2_2_2_2_2

New Line.l(r:p1rdt1158lv-p1rlv11966) Units=km Length=0.0171455 bus1=p1rdt1158lv.1.2 bus2=p1rlv11966.1.2 switch=n enabled=y phases=2 Linecode=1P_OH_AL_2/0_Rucina_0_416_0_2_2_2_2_2_2_2_2_2_2_2_2_2_2_2_2_2_2_2_2_2_2_2_2_2_2_2_2_2

New Line.l(r:p1rdm2571-p1rlv1225) Units=km Length=0.0166991 bus1=p1rdm2571.1.2 bus2=p1rlv1225.1.2 switch=n enabled=y phases=2 Linecode=1P_OH_AL_2/0_Rucina_0_416_0_2_2_2_2_2_2_2_2_2_2_2_2_2_2_2_2_2_2_2_2_2_2_2_2_2_2_2_2_2

New Line.l(r:p1rdm2571-p1rdt1158lv) Units=km Length=0.0191194 bus1=p1rdt1158lv.1.2 bus2=p1rdm2571.1.2 switch=n enabled=y phases=2 Linecode=1P_OH_AL_2/0_Rucina_0_416_0_2_2_2_2_2_2_2_2_2_2_2_2_2_2_2_2_2_2_2_2_2_2_2_2_2_2_2_2_2

New Line.l(r:p1rdt1159lv-p1rlv1227) Units=km Length=0.001 bus1=p1rdt1159lv.1.2 bus2=p1rlv1227.1.2 switch=n enabled=y phases=2 Linecode=1P_OH_AL_4_Periwinkle_0_416_0_2_2_2_2_2_2_2_2_2_2_2_2_2_2_2_2_2_2_2_2_2_2_2_2_2_2_2_2_2

New Line.l(r:p1rdt1275lv-p1rlv1358) Units=km Length=0.00893985 bus1=p1rdt1275lv.1.2 bus2=p1rlv1358.1.2 switch=n enabled=y phases=2 Linecode=1P_OH_AL_2/0_Rucina_0_416_0_2_2_2_2_2_2_2_2_2_2_2_2_2_2_2_2_2_2_2_2_2_2_2_2_2_2_2_2_2

New Line.l(r:p1rdt1275lv-p1rlv9224) Units=km Length=0.00893985 bus1=p1rdt1275lv.1.2 bus2=p1rlv9224.1.2 switch=n enabled=y phases=2 Linecode=1P_OH_AL_2/0_Rucina_0_416_0_2_2_2_2_2_2_2_2_2_2_2_2_2_2_2_2_2_2_2_2_2_2_2_2_2_2_2_2_2

New Line.l(r:p1rdt1279lv-p1rlv1364) Units=km Length=0.013535700000000001 bus1=p1rdt1279lv.1.2 bus2=p1rlv1364.1.2 switch=n enabled=y phases=2 Linecode=1P_OH_AL_2/0_Rucina_0_416_0_2_2_2_2_2_2_2_2_2_2_2_2_2_2_2_2_2_2_2_2_2_2_2_2_2_2_2_2_2

New Line.l(r:p1rdt1279lv-p1rlv5683) Units=km Length=0.013535700000000001 bus1=p1rdt1279lv.1.2 bus2=p1rlv5683.1.2 switch=n enabled=y phases=2 Linecode=1P_OH_AL_2/0_Rucina_0_416_0_2_2_2_2_2_2_2_2_2_2_2_2_2_2_2_2_2_2_2_2_2_2_2_2_2_2_2_2_2

New Line.l(r:p1rdt1281lv-p1rlv6326) Units=km Length=0.015816 bus1=p1rdt1281lv.1.2 bus2=p1rlv6326.1.2 switch=n enabled=y phases=2 Linecode=1P_OH_AL_2/0_Rucina_0_416_0_2_2_2_2_2_2_2_2_2_2_2_2_2_2_2_2_2_2_2_2_2_2_2_2_2_2_2_2_2

New Line.l(r:p1rdm2841-p1rlv1366) Units=km Length=0.0158548 bus1=p1rdm2841.1.2 bus2=p1rlv1366.1.2 switch=n enabled=y phases=2 Linecode=1P_OH_AL_2/0_Rucina_0_416_0_2_2_2_2_2_2_2_2_2_2_2_2_2_2_2_2_2_2_2_2_2_2_2_2_2_2_2_2_2

New Line.l(r:p1rdm2841-p1rdt1281lv) Units=km Length=0.0382832 bus1=p1rdt1281lv.1.2 bus2=p1rdm2841.1.2 switch=n enabled=y phases=2 Linecode=1P_OH_AL_4/0_Zuzara_0_416_0_2_2_2_2_2_2_2_2_2_2_2_2_2_2_2_2_2_2_2_2_2_2_2_2_2_2_2_2_2

New Line.l(r:p1rdm2842-p1rlv1898) Units=km Length=0.0162168 bus1=p1rdm2842.1.2 bus2=p1rlv1898.1.2 switch=n enabled=y phases=2 Linecode=1P_OH_AL_2/0_Rucina_0_416_0_2_2_2_2_2_2_2_2_2_2_2_2_2_2_2_2_2_2_2_2_2_2_2_2_2_2_2_2_2

New Line.l(r:p1rdm2842-p1rlv10052) Units=km Length=0.0165965 bus1=p1rdm2842.1.2 bus2=p1rlv10052.1.2 switch=n enabled=y phases=2 Linecode=1P_OH_AL_2/0_Rucina_0_416_0_2_2_2_2_2_2_2_2_2_2_2_2_2_2_2_2_2_2_2_2_2_2_2_2_2_2_2_2_2

New Line.l(r:p1rdm2845-p1rlv13282) Units=km Length=0.0156256 bus1=p1rdm2845.1.2 bus2=p1rlv13282.1.2 switch=n enabled=y phases=2 Linecode=1P_OH_AL_2/0_Rucina_0_416_0_2_2_2_2_2_2_2_2_2_2_2_2_2_2_2_2_2_2_2_2_2_2_2_2_2_2_2_2_2

New Line.l(r:p1rdm2842-p1rdm2845) Units=km Length=0.0186711 bus1=p1rdm2842.1.2 bus2=p1rdm2845.1.2 switch=n enabled=y phases=2 Linecode=1P_OH_AL_2/0_Rucina_0_416_0_2_2_2_2_2_2_2_2_2_2_2_2_2_2_2_2_2_2_2_2_2_2_2_2_2_2_2_2_2

New Line.l(r:p1rdm2842-p1rdt1281lv) Units=km Length=0.013360000000000002 bus1=p1rdt1281lv.1.2 bus2=p1rdm2842.1.2 switch=n enabled=y phases=2 Linecode=1P_OH_AL_2/0_Rucina_0_416_0_2_0_2_2_2_2_2_2_2_2_2_2_2_2_2_2_2_2_2_2_2_2_2_2_2_2_2_2_2_2

New Line.l(r:p1rdt1282lv-p1rlv1367) Units=km Length=0.0154317 bus1=p1rdt1282lv.1.2 bus2=p1rlv1367.1.2 switch=n enabled=y phases=2 Linecode=1P_OH_AL_2/0_Rucina_0_416_0_2_2_2_2_2_2_2_2_2_2_2_2_2_2_2_2_2_2_2_2_2_2_2_2_2_2_2_2_2

New Line.l(r:p1rdt1282lv-p1rlv10176) Units=km Length=0.016488 bus1=p1rdt1282lv.1.2 bus2=p1rlv10176.1.2 switch=n enabled=y phases=2 Linecode=1P_OH_AL_2/0_Rucina_0_416_0_2_2_2_2_2_2_2_2_2_2_2_2_2_2_2_2_2_2_2_2_2_2_2_2_2_2_2_2_2

New Line.l(r:p1rdm2848-p1rlv11831) Units=km Length=0.017632 bus1=p1rdm2848.1.2 bus2=p1rlv11831.1.2 switch=n enabled=y phases=2 Linecode=1P_OH_AL_2/0_Rucina_0_416_0_2_2_2_2_2_2_2_2_2_2_2_2_2_2_2_2_2_2_2_2_2_2_2_2_2_2_2_2_2

New Line.l(r:p1rdm2848-p1rdt1282lv) Units=km Length=0.0186971 bus1=p1rdt1282lv.1.2 bus2=p1rdm2848.1.2 switch=n enabled=y phases=2 Linecode=1P_OH_AL_2/0_Rucina_0_416_0_2_2_2_2_2_2_2_2_2_2_2_2_2_2_2_2_2_2_2_2_2_2_2_2_2_2_2_2_2

New Line.l(r:p1rdt1283lv-p1rlv1368) Units=km Length=0.0167269 bus1=p1rdt1283lv.1.2 bus2=p1rlv1368.1.2 switch=n enabled=y phases=2 Linecode=1P_OH_AL_2/0_Rucina_0_416_0_2_2_2_2_2_2_2_2_2_2_2_2_2_2_2_2_2_2_2_2_2_2_2_2_2_2_2_2_2

New Line.l(r:p1rdt1284lv-p1rlv1369) Units=km Length=0.0164712 bus1=p1rdt1284lv.1.2 bus2=p1rlv1369.1.2 switch=n enabled=y phases=2 Linecode=1P_OH_AL_2/0_Rucina_0_416_0_2_2_2_2_2_2_2_2_2_2_2_2_2_2_2_2_2_2_2_2_2_2_2_2_2_2_2_2_2

New Line.l(r:p1rdt1285lv-p1rlv1370) Units=km Length=0.0150271 bus1=p1rdt1285lv.1.2 bus2=p1rlv1370.1.2 switch=n enabled=y phases=2 Linecode=1P_OH_AL_2/0_Rucina_0_416_0_2_2_2_2_2_2_2_2_2_2_2_2_2_2_2_2_2_2_2_2_2_2_2_2_2_2_2_2_2

New Line.l(r:p1rdt1285lv-p1rlv2322) Units=km Length=0.016688 bus1=p1rdt1285lv.1.2 bus2=p1rlv2322.1.2 switch=n enabled=y phases=2 Linecode=1P_OH_AL_2/0_Rucina_0_416_0_2_2_2_2_2_2_2_2_2_2_2_2_2_2_2_2_2_2_2_2_2_2_2_2_2_2_2_2_2

New Line.l(r:p1rdt1285lv-p1rlv7095) Units=km Length=0.0166879 bus1=p1rdt1285lv.1.2 bus2=p1rlv7095.1.2 switch=n enabled=y phases=2 Linecode=1P_OH_AL_2/0_Rucina_0_416_0_2_2_2_2_2_2_2_2_2_2_2_2_2_2_2_2_2_2_2_2_2_2_2_2_2_2_2_2_2

New Line.l(r:p1rdt1286lv-p1rlv1371) Units=km Length=0.055883800000000004 bus1=p1rdt1286lv.1.2 bus2=p1rlv1371.1.2 switch=n enabled=y phases=2 Linecode=1P_OH_AL_4/0_Zuzara_0_416_0_2_2_2_2_2_2_2_2_2_2_2_2_2_2_2_2_2_2_2_2_2_2_2_2_2_2_2_2_2

New Line.l(r:p1rdm3082-p1rlv3347) Units=km Length=0.0707339 bus1=p1rdm3082.1.2 bus2=p1rlv3347.1.2 switch=n enabled=y phases=2 Linecode=1P_OH_AL_4/0_Zuzara_0_416_0_2_2_2_2_2_2_2_2_2_2_2_2_2_2_2_2_2_2_2_2_2_2_2_2_2_2_2_2_2

New Line.l(r:p1rdm3081-p1rlv1503) Units=km Length=0.0646822 bus1=p1rdm3081.1.2 bus2=p1rlv1503.1.2 switch=n enabled=y phases=2 Linecode=1P_OH_AL_4/0_Zuzara_0_416_0_2_2_2_2_2_2_2_2_2_2_2_2_2_2_2_2_2_2_2_2_2_2_2_2_2_2_2_2_2

New Line.l(r:p1rdm3081-p1rdm3082) Units=km Length=0.0193872 bus1=p1rdm3082.1.2 bus2=p1rdm3081.1.2 switch=n enabled=y phases=2 Linecode=1P_OH_AL_2/0_Rucina_0_416_0_2_2_2_2_2_2_2_2_2_2_2_2_2_2_2_2_2_2_2_2_2_2_2_2_2_2_2_2_2

New Line.l(r:p1rdm3082-p1rdt1401lv) Units=km Length=0.0193872 bus1=p1rdt1401lv.1.2 bus2=p1rdm3082.1.2 switch=n enabled=y phases=2 Linecode=1P_OH_AL_2/0_Rucina_0_416_0_2_2_2_2_2_2_2_2_2_2_2_2_2_2_2_2_2_2_2_2_2_2_2_2_2_2_2_2_2

New Line.l(r:p1rdm3083-p1rlv5020) Units=km Length=0.0653791 bus1=p1rdm3083.1.2 bus2=p1rlv5020.1.2 switch=n enabled=y phases=2 Linecode=1P_OH_AL_4/0_Zuzara_0_416_0_2_2_2_2_2_2_2_2_2_2_2_2_2_2_2_2_2_2_2_2_2_2_2_2_2_2_2_2_2

New Line.l(r:p1rdm3083-p1rdt1401lv) Units=km Length=0.0193872 bus1=p1rdt1401lv.1.2 bus2=p1rdm3083.1.2 switch=n enabled=y phases=2 Linecode=1P_OH_AL_2/0_Rucina_0_416_0_2_2_2_2_2_2_2_2_2_2_2_2_2_2_2_2_2_2_2_2_2_2_2_2_2_2_2_2_2

New Line.l(r:p1rdm3085-p1rlv1506) Units=km Length=0.031917 bus1=p1rdm3085.1.2 bus2=p1rlv1506.1.2 switch=n enabled=y phases=2 Linecode=1P_OH_AL_4/0_Zuzara_0_416_0_2_2_2_2_2_2_2_2_2_2_2_2_2_2_2_2_2_2_2_2_2_2_2_2_2_2_2_2_2

New Line.l(r:p1rdm3085-p1rdt1403lv) Units=km Length=0.0373549 bus1=p1rdt1403lv.1.2 bus2=p1rdm3085.1.2 switch=n enabled=y phases=2 Linecode=1P_OH_AL_4/0_Zuzara_0_416_0_2_2_2_2_2_2_2_2_2_2_2_2_2_2_2_2_2_2_2_2_2_2_2_2_2_2_2_2_2

New Line.l(r:p1rdm3086-p1rlv1631) Units=km Length=0.0325179 bus1=p1rdm3086.1.2 bus2=p1rlv1631.1.2 switch=n enabled=y phases=2 Linecode=1P_OH_AL_4/0_Zuzara_0_416_0_2_2_2_2_2_2_2_2_2_2_2_2_2_2_2_2_2_2_2_2_2_2_2_2_2_2_2_2_2

New Line.l(r:p1rdm3086-p1rdt1403lv) Units=km Length=0.018682000000000004 bus1=p1rdt1403lv.1.2 bus2=p1rdm3086.1.2 switch=n enabled=y phases=2 Linecode=1P_OH_AL_2/0_Rucina_0_416_0_2_2_2_2_2_2_2_2_2_2_2_2_2_2_2_2_2_2_2_2_2_2_2_2_2_2_2_2_2

New Line.l(r:p1rdt1405lv-p1rlv1508) Units=km Length=0.0180723 bus1=p1rdt1405lv.1.2 bus2=p1rlv1508.1.2 switch=n enabled=y phases=2 Linecode=1P_OH_AL_2/0_Rucina_0_416_0_2_2_2_2_2_2_2_2_2_2_2_2_2_2_2_2_2_2_2_2_2_2_2_2_2_2_2_2_2

New Line.l(r:p1rdt1406lv-p1rlv1509) Units=km Length=0.0128219 bus1=p1rdt1406lv.1.2 bus2=p1rlv1509.1.2 switch=n enabled=y phases=2 Linecode=1P_OH_AL_2/0_Rucina_0_416_0_2_2_2_2_2_2_2_2_2_2_2_2_2_2_2_2_2_2_2_2_2_2_2_2_2_2_2_2_2

New Line.l(r:p1rdm3091-p1rlv1899) Units=km Length=0.0167695 bus1=p1rdm3091.1.2 bus2=p1rlv1899.1.2 switch=n enabled=y phases=2 Linecode=1P_OH_AL_2/0_Rucina_0_416_0_2_2_2_2_2_2_2_2_2_2_2_2_2_2_2_2_2_2_2_2_2_2_2_2_2_2_2_2_2

New Line.l(r:p1rdm3091-p1rlv8170) Units=km Length=0.0140684 bus1=p1rdm3091.1.2 bus2=p1rlv8170.1.2 switch=n enabled=y phases=2 Linecode=1P_OH_AL_2/0_Rucina_0_416_0_2_2_2_2_2_2_2_2_2_2_2_2_2_2_2_2_2_2_2_2_2_2_2_2_2_2_2_2_2

New Line.l(r:p1rdm3091-p1rdt1406lv) Units=km Length=0.010336 bus1=p1rdt1406lv.1.2 bus2=p1rdm3091.1.2 switch=n enabled=y phases=2 Linecode=1P_OH_AL_2/0_Rucina_0_416_0_2_2_2_2_2_2_2_2_2_2_2_2_2_2_2_2_2_2_2_2_2_2_2_2_2_2_2_2_2

New Line.l(r:p1rdm3092-p1rlv5810) Units=km Length=0.0144609 bus1=p1rdm3092.1.2 bus2=p1rlv5810.1.2 switch=n enabled=y phases=2 Linecode=1P_OH_AL_2/0_Rucina_0_416_0_2_2_2_2_2_2_2_2_2_2_2_2_2_2_2_2_2_2_2_2_2_2_2_2_2_2_2_2_2

New Line.l(r:p1rdm3092-p1rlv11537) Units=km Length=0.0144575 bus1=p1rdm3092.1.2 bus2=p1rlv11537.1.2 switch=n enabled=y phases=2 Linecode=1P_OH_AL_2/0_Rucina_0_416_0_2_2_2_2_2_2_2_2_2_2_2_2_2_2_2_2_2_2_2_2_2_2_2_2_2_2_2_2_2

New Line.l(r:p1rdm3092-p1rdt1406lv) Units=km Length=0.0250938 bus1=p1rdt1406lv.1.2 bus2=p1rdm3092.1.2 switch=n enabled=y phases=2 Linecode=1P_OH_AL_2/0_Rucina_0_416_0_2_2_2_2_2_2_2_2_2_2_2_2_2_2_2_2_2_2_2_2_2_2_2_2_2_2_2_2_2

New Line.l(r:p1rdt1407lv-p1rlv6327) Units=km Length=0.0167333 bus1=p1rdt1407lv.1.2 bus2=p1rlv6327.1.2 switch=n enabled=y phases=2 Linecode=1P_OH_AL_2/0_Rucina_0_416_0_2_2_2_2_2_2_2_2_2_2_2_2_2_2_2_2_2_2_2_2_2_2_2_2_2_2_2_2_2

New Line.l(r:p1rdm3095-p1rlv1510) Units=km Length=0.0171591 bus1=p1rdm3095.1.2 bus2=p1rlv1510.1.2 switch=n enabled=y phases=2 Linecode=1P_OH_AL_2/0_Rucina_0_416_0_2_2_2_2_2_2_2_2_2_2_2_2_2_2_2_2_2_2_2_2_2_2_2_2_2_2_2_2_2
