New Line.l(r:p3udt6lv-p3ulv60) Units=km Length=0.0141693 bus1=p3udt6lv.1.2 bus2=p3ulv60.1.2 switch=n enabled=y phases=2 Linecode=1P_UG_AL_1/0_Brenau_0_416_0_2_2_2_2

New Line.l(r:p3udm23-p3ulv7) Units=km Length=0.0050064 bus1=p3udm23.1.2 bus2=p3ulv7.1.2 switch=n enabled=y phases=2 Linecode=1P_UG_AL_1/0_Brenau_0_416_0_2_2_2_2

New Line.l(r:p3udm25-p3ulv19) Units=km Length=0.0066595 bus1=p3udm25.1.2 bus2=p3ulv19.1.2 switch=n enabled=y phases=2 Linecode=1P_UG_AL_1/0_Brenau_0_416_0_2_2_2_2

New Line.l(r:p3udm25-p3ulv20) Units=km Length=0.011697200000000001 bus1=p3udm25.1.2 bus2=p3ulv20.1.2 switch=n enabled=y phases=2 Linecode=1P_UG_AL_1/0_Brenau_0_416_0_2_2_2_2

New Line.l(r:p3udm23-p3udm25) Units=km Length=0.00923723 bus1=p3udm23.1.2 bus2=p3udm25.1.2 switch=n enabled=y phases=2 Linecode=1P_UG_AL_4/0_Sweetbriar_0_416_0_2_2_2_2

New Line.l(r:p3udm23-p3udt6lv) Units=km Length=0.00802028 bus1=p3udt6lv.1.2 bus2=p3udm23.1.2 switch=n enabled=y phases=2 Linecode=1P_UG_AL_4/0_Sweetbriar_0_416_0_2_2_2_2

New Line.l(r:p3udm24-p3ulv8) Units=km Length=0.00361087 bus1=p3udm24.1.2 bus2=p3ulv8.1.2 switch=n enabled=y phases=2 Linecode=1P_UG_AL_1/0_Brenau_0_416_0_2_2_2_2

New Line.l(r:p3udm24-p3ulv64) Units=km Length=0.0124825 bus1=p3udm24.1.2 bus2=p3ulv64.1.2 switch=n enabled=y phases=2 Linecode=1P_UG_AL_1/0_Brenau_0_416_0_2_2_2_2

New Line.l(r:p3udm24-p3udt6lv) Units=km Length=0.014944200000000001 bus1=p3udt6lv.1.2 bus2=p3udm24.1.2 switch=n enabled=y phases=2 Linecode=1P_UG_AL_4/0_Sweetbriar_0_416_0_2_2_2_2

New Line.l(r:p3udm53-p3ulv17) Units=km Length=0.0177975 bus1=p3udm53.1.2 bus2=p3ulv17.1.2 switch=n enabled=y phases=2 Linecode=1P_UG_AL_4/0_Sweetbriar_0_416_0_2_2_2_2

New Line.l(r:p3udm53-p3udt15lv) Units=km Length=0.015888 bus1=p3udt15lv.1.2 bus2=p3udm53.1.2 switch=n enabled=y phases=2 Linecode=1P_UG_AL_4/0_Sweetbriar_0_416_0_2_2_2_2

New Line.l(r:p3udm54-p3ulv44169) Units=km Length=0.029453500000000004 bus1=p3udm54.1.2 bus2=p3ulv44169.1.2 switch=n enabled=y phases=2 Linecode=1P_UG_AL_1/0_Brenau_0_416_0_2_2_2_2

New Line.l(r:p3udm54-p3udt15lv) Units=km Length=0.0135463 bus1=p3udt15lv.1.2 bus2=p3udm54.1.2 switch=n enabled=y phases=2 Linecode=1P_UG_AL_1/0_Brenau_0_416_0_2_2_2_2

New Line.l(r:p3udt17lv-p3ulv249) Units=km Length=0.0053606 bus1=p3udt17lv.1.2 bus2=p3ulv249.1.2 switch=n enabled=y phases=2 Linecode=1P_UG_AL_1/0_Brenau_0_416_0_2_2_2_2

New Line.l(r:p3udt17lv-p3ulv80800) Units=km Length=0.00362945 bus1=p3udt17lv.1.2 bus2=p3ulv80800.1.2 switch=n enabled=y phases=2 Linecode=1P_UG_AL_1/0_Brenau_0_416_0_2_2_2_2

New Line.l(r:p3udm60-p3ulv21) Units=km Length=0.00569141 bus1=p3udm60.1.2 bus2=p3ulv21.1.2 switch=n enabled=y phases=2 Linecode=1P_UG_AL_1/0_Brenau_0_416_0_2_2_2_2

New Line.l(r:p3udm60-p3ulv51) Units=km Length=0.00537923 bus1=p3udm60.1.2 bus2=p3ulv51.1.2 switch=n enabled=y phases=2 Linecode=1P_UG_AL_1/0_Brenau_0_416_0_2_2_2_2

New Line.l(r:p3udm64-p3ulv80799) Units=km Length=0.00715372 bus1=p3udm64.1.2 bus2=p3ulv80799.1.2 switch=n enabled=y phases=2 Linecode=1P_UG_AL_1/0_Brenau_0_416_0_2_2_2_2

New Line.l(r:p3udm60-p3udm64) Units=km Length=0.00916695 bus1=p3udm60.1.2 bus2=p3udm64.1.2 switch=n enabled=y phases=2 Linecode=1P_UG_AL_1/0_Brenau_0_416_0_2_2_2_2

New Line.l(r:p3udm60-p3udt17lv) Units=km Length=0.009153670000000001 bus1=p3udt17lv.1.2 bus2=p3udm60.1.2 switch=n enabled=y phases=2 Linecode=1P_UG_AL_4/0_Sweetbriar_0_416_0_2_2_2_2

New Line.l(r:p3udm61-p3ulv32) Units=km Length=0.00871767 bus1=p3udm61.1.2 bus2=p3ulv32.1.2 switch=n enabled=y phases=2 Linecode=1P_UG_AL_1/0_Brenau_0_416_0_2_2_2_2

New Line.l(r:p3udm61-p3udt17lv) Units=km Length=0.00915789 bus1=p3udt17lv.1.2 bus2=p3udm61.1.2 switch=n enabled=y phases=2 Linecode=1P_UG_AL_1/0_Brenau_0_416_0_2_2_2_2

New Line.l(r:p3udt18lv-p3ulv65) Units=km Length=0.011276600000000001 bus1=p3udt18lv.1.2 bus2=p3ulv65.1.2 switch=n enabled=y phases=2 Linecode=1P_UG_AL_1/0_Brenau_0_416_0_2_2_2_2

New Line.l(r:p3udt18lv-p3ulv91) Units=km Length=0.00748215 bus1=p3udt18lv.1.2 bus2=p3ulv91.1.2 switch=n enabled=y phases=2 Linecode=1P_UG_AL_1/0_Brenau_0_416_0_2_2_2_2

New Line.l(r:p3udm66-p3ulv22) Units=km Length=0.00564564 bus1=p3udm66.1.2 bus2=p3ulv22.1.2 switch=n enabled=y phases=2 Linecode=1P_UG_AL_1/0_Brenau_0_416_0_2_2_2_2

New Line.l(r:p3udm71-p3ulv195) Units=km Length=0.00847199 bus1=p3udm71.1.2 bus2=p3ulv195.1.2 switch=n enabled=y phases=2 Linecode=1P_UG_AL_1/0_Brenau_0_416_0_2_2_2_2

New Line.l(r:p3udm70-p3ulv170) Units=km Length=0.00659776 bus1=p3udm70.1.2 bus2=p3ulv170.1.2 switch=n enabled=y phases=2 Linecode=1P_UG_AL_1/0_Brenau_0_416_0_2_2_2_2

New Line.l(r:p3udm70-p3udm71) Units=km Length=0.0105519 bus1=p3udm71.1.2 bus2=p3udm70.1.2 switch=n enabled=y phases=2 Linecode=1P_UG_AL_1/0_Brenau_0_416_0_2_2_2_2

New Line.l(r:p3udm66-p3udm71) Units=km Length=0.005933180000000001 bus1=p3udm66.1.2 bus2=p3udm71.1.2 switch=n enabled=y phases=2 Linecode=1P_UG_AL_2/0_Converse_0_416_0_2_2_2_2

New Line.l(r:p3udm66-p3udt18lv) Units=km Length=0.00594623 bus1=p3udt18lv.1.2 bus2=p3udm66.1.2 switch=n enabled=y phases=2 Linecode=1P_UG_AL_4/0_Sweetbriar_0_416_0_2_2_2_2

New Line.l(r:p3udm69-p3ulv123) Units=km Length=0.00544004 bus1=p3udm69.1.2 bus2=p3ulv123.1.2 switch=n enabled=y phases=2 Linecode=1P_UG_AL_1/0_Brenau_0_416_0_2_2_2_2

New Line.l(r:p3udm72-p3ulv254) Units=km Length=0.00891403 bus1=p3udm72.1.2 bus2=p3ulv254.1.2 switch=n enabled=y phases=2 Linecode=1P_UG_AL_1/0_Brenau_0_416_0_2_2_2_2

New Line.l(r:p3udm73-p3ulv67164) Units=km Length=0.00489119 bus1=p3udm73.1.2 bus2=p3ulv67164.1.2 switch=n enabled=y phases=2 Linecode=1P_UG_AL_1/0_Brenau_0_416_0_2_2_2_2

New Line.l(r:p3udm72-p3udm73) Units=km Length=0.00787254 bus1=p3udm72.1.2 bus2=p3udm73.1.2 switch=n enabled=y phases=2 Linecode=1P_UG_AL_1/0_Brenau_0_416_0_2_2_2_2

New Line.l(r:p3udm69-p3udm72) Units=km Length=0.006267840000000001 bus1=p3udm69.1.2 bus2=p3udm72.1.2 switch=n enabled=y phases=2 Linecode=1P_UG_AL_1/0_Brenau_0_416_0_2_2_2_2

New Line.l(r:p3udm69-p3udt18lv) Units=km Length=0.00625514 bus1=p3udt18lv.1.2 bus2=p3udm69.1.2 switch=n enabled=y phases=2 Linecode=1P_UG_AL_4/0_Sweetbriar_0_416_0_2_2_2_2

New Line.l(r:p3udt25lv-p3ulv35) Units=km Length=0.00432447 bus1=p3udt25lv.1.2 bus2=p3ulv35.1.2 switch=n enabled=y phases=2 Linecode=1P_UG_AL_1/0_Brenau_0_416_0_2_2_2_2

New Line.l(r:p3udm92-p3ulv62) Units=km Length=0.00821897 bus1=p3udm92.1.2 bus2=p3ulv62.1.2 switch=n enabled=y phases=2 Linecode=1P_UG_AL_1/0_Brenau_0_416_0_2_2_2_2

New Line.l(r:p3udm95-p3ulv179) Units=km Length=0.0051215 bus1=p3udm95.1.2 bus2=p3ulv179.1.2 switch=n enabled=y phases=2 Linecode=1P_UG_AL_1/0_Brenau_0_416_0_2_2_2_2

New Line.l(r:p3udm92-p3udm95) Units=km Length=0.00823119 bus1=p3udm92.1.2 bus2=p3udm95.1.2 switch=n enabled=y phases=2 Linecode=1P_UG_AL_1/0_Brenau_0_416_0_2_2_2_2

New Line.l(r:p3udm92-p3udt25lv) Units=km Length=0.00654795 bus1=p3udt25lv.1.2 bus2=p3udm92.1.2 switch=n enabled=y phases=2 Linecode=1P_UG_AL_2/0_Converse_0_416_0_2_2_2_2

New Line.l(r:p3udm94-p3ulv157) Units=km Length=0.00742418 bus1=p3udm94.1.2 bus2=p3ulv157.1.2 switch=n enabled=y phases=2 Linecode=1P_UG_AL_1/0_Brenau_0_416_0_2_2_2_2

New Line.l(r:p3udm93-p3ulv70) Units=km Length=0.00861335 bus1=p3udm93.1.2 bus2=p3ulv70.1.2 switch=n enabled=y phases=2 Linecode=1P_UG_AL_1/0_Brenau_0_416_0_2_2_2_2

New Line.l(r:p3udm93-p3udm94) Units=km Length=0.00719935 bus1=p3udm94.1.2 bus2=p3udm93.1.2 switch=n enabled=y phases=2 Linecode=1P_UG_AL_1/0_Brenau_0_416_0_2_2_2_2

New Line.l(r:p3udm94-p3udt25lv) Units=km Length=0.013629000000000002 bus1=p3udt25lv.1.2 bus2=p3udm94.1.2 switch=n enabled=y phases=2 Linecode=1P_UG_AL_2/0_Converse_0_416_0_2_2_2_2

New Line.l(r:p3udt27lv-p3ulv38) Units=km Length=0.0140824 bus1=p3udt27lv.1.2 bus2=p3ulv38.1.2 switch=n enabled=y phases=2 Linecode=1P_OH_AL_2/0_Rucina_0_416_0_2_2_2_2

New Line.l(r:p3udm98-p3ulv5168) Units=km Length=0.0177321 bus1=p3udm98.1.2 bus2=p3ulv5168.1.2 switch=n enabled=y phases=2 Linecode=1P_OH_AL_2/0_Rucina_0_416_0_2_2_2_2

New Line.l(r:p3udm98-p3ulv33344) Units=km Length=0.0160004 bus1=p3udm98.1.2 bus2=p3ulv33344.1.2 switch=n enabled=y phases=2 Linecode=1P_OH_AL_2/0_Rucina_0_416_0_2_2_2_2

New Line.l(r:p3udm98-p3udt27lv) Units=km Length=0.0181995 bus1=p3udt27lv.1.2 bus2=p3udm98.1.2 switch=n enabled=y phases=2 Linecode=1P_OH_AL_2/0_Rucina_0_416_0_2_2_2_2

New Line.l(r:p3udm99-p3ulv13839) Units=km Length=0.0162131 bus1=p3udm99.1.2 bus2=p3ulv13839.1.2 switch=n enabled=y phases=2 Linecode=1P_OH_AL_2/0_Rucina_0_416_0_2_2_2_2

New Line.l(r:p3udm99-p3udt27lv) Units=km Length=0.018212200000000005 bus1=p3udt27lv.1.2 bus2=p3udm99.1.2 switch=n enabled=y phases=2 Linecode=1P_OH_AL_2/0_Rucina_0_416_0_2_2_2_2

New Line.l(r:p3udt35lv-p3ulv117) Units=km Length=0.00989164 bus1=p3udt35lv.1.2 bus2=p3ulv117.1.2 switch=n enabled=y phases=2 Linecode=1P_UG_AL_1/0_Brenau_0_416_0_2_2_2_2

New Line.l(r:p3udt35lv-p3ulv80801) Units=km Length=0.011283700000000002 bus1=p3udt35lv.1.2 bus2=p3ulv80801.1.2 switch=n enabled=y phases=2 Linecode=1P_UG_AL_1/0_Brenau_0_416_0_2_2_2_2

New Line.l(r:p3udm127-p3ulv50) Units=km Length=0.00584098 bus1=p3udm127.1.2 bus2=p3ulv50.1.2 switch=n enabled=y phases=2 Linecode=1P_UG_AL_1/0_Brenau_0_416_0_2_2_2_2

New Line.l(r:p3udm127-p3udt35lv) Units=km Length=0.009257 bus1=p3udt35lv.1.2 bus2=p3udm127.1.2 switch=n enabled=y phases=2 Linecode=1P_UG_AL_1/0_Brenau_0_416_0_2_2_2_2

New Line.l(r:p3udt37lv-p3ulv54) Units=km Length=0.0127122 bus1=p3udt37lv.1.2 bus2=p3ulv54.1.2 switch=n enabled=y phases=2 Linecode=1P_UG_AL_4/0_Sweetbriar_0_416_0_2_2_2_2

New Line.l(r:p3udt37lv-p3ulv131) Units=km Length=0.0217593 bus1=p3udt37lv.1.2 bus2=p3ulv131.1.2 switch=n enabled=y phases=2 Linecode=1P_UG_AL_4/0_Sweetbriar_0_416_0_2_2_2_2

New Line.l(r:p3udt37lv-p3ulv13034) Units=km Length=0.0211496 bus1=p3udt37lv.1.2 bus2=p3ulv13034.1.2 switch=n enabled=y phases=2 Linecode=1P_UG_AL_1/0_Brenau_0_416_0_2_2_2_2

New Line.l(r:p3udt42lv-p3ulv130) Units=km Length=0.0183023 bus1=p3udt42lv.1.2 bus2=p3ulv130.1.2 switch=n enabled=y phases=2 Linecode=1P_OH_AL_2/0_Rucina_0_416_0_2_2_2_2

New Line.l(r:p3udt42lv-p3ulv143) Units=km Length=0.00306243 bus1=p3udt42lv.1.2 bus2=p3ulv143.1.2 switch=n enabled=y phases=2 Linecode=1P_OH_AL_4_Periwinkle_0_416_0_2_2_2_2

New Line.l(r:p3udm152-p3ulv66) Units=km Length=0.013722 bus1=p3udm152.1.2 bus2=p3ulv66.1.2 switch=n enabled=y phases=2 Linecode=1P_OH_AL_2/0_Rucina_0_416_0_2_2_2_2

New Line.l(r:p3udm152-p3ulv213) Units=km Length=0.012454000000000002 bus1=p3udm152.1.2 bus2=p3ulv213.1.2 switch=n enabled=y phases=2 Linecode=1P_OH_AL_2/0_Rucina_0_416_0_2_2_2_2

New Line.l(r:p3udm152-p3udt42lv) Units=km Length=0.03566470000000001 bus1=p3udt42lv.1.2 bus2=p3udm152.1.2 switch=n enabled=y phases=2 Linecode=1P_OH_AL_4/0_Zuzara_0_416_0_2_2_2_2

New Line.l(r:p3udm156-p3ulv44170) Units=km Length=0.0150075 bus1=p3udm156.1.2 bus2=p3ulv44170.1.2 switch=n enabled=y phases=2 Linecode=1P_OH_AL_2/0_Rucina_0_416_0_2_2_2_2

New Line.l(r:p3udm156-p3udt42lv) Units=km Length=0.0182855 bus1=p3udt42lv.1.2 bus2=p3udm156.1.2 switch=n enabled=y phases=2 Linecode=1P_OH_AL_2/0_Rucina_0_416_0_2_2_2_2

New Line.l(r:p3udt51lv-p3ulv82) Units=km Length=0.0071483200000000005 bus1=p3udt51lv.1.2 bus2=p3ulv82.1.2 switch=n enabled=y phases=2 Linecode=1P_OH_AL_2/0_Rucina_0_416_0_2_2_2_2

New Line.l(r:p3udm183-p3ulv90) Units=km Length=0.0073313 bus1=p3udm183.1.2 bus2=p3ulv90.1.2 switch=n enabled=y phases=2 Linecode=1P_OH_AL_2/0_Rucina_0_416_0_2_2_2_2

New Line.l(r:p3udm183-p3udt51lv) Units=km Length=0.0198762 bus1=p3udt51lv.1.2 bus2=p3udm183.1.2 switch=n enabled=y phases=2 Linecode=1P_OH_AL_2/0_Rucina_0_416_0_2_2_2_2

New Line.l(r:p3udt53lv-p3ulv87) Units=km Length=0.0100522 bus1=p3udt53lv.1.2 bus2=p3ulv87.1.2 switch=n enabled=y phases=2 Linecode=1P_OH_AL_2/0_Rucina_0_416_0_2_2_2_2

New Line.l(r:p3udt53lv-p3ulv128) Units=km Length=0.0328147 bus1=p3udt53lv.1.2 bus2=p3ulv128.1.2 switch=n enabled=y phases=2 Linecode=1P_OH_AL_4/0_Zuzara_0_416_0_2_2_2_2

New Line.l(r:p3udt55lv-p3ulv259) Units=km Length=0.0146825 bus1=p3udt55lv.1.2 bus2=p3ulv259.1.2 switch=n enabled=y phases=2 Linecode=1P_UG_AL_4/0_Sweetbriar_0_416_0_2_2_2_2

New Line.l(r:p3udm194-p3ulv94) Units=km Length=0.00915145 bus1=p3udm194.1.2 bus2=p3ulv94.1.2 switch=n enabled=y phases=2 Linecode=1P_UG_AL_4/0_Sweetbriar_0_416_0_2_2_2_2

New Line.l(r:p3udm194-p3udt55lv) Units=km Length=0.00648587 bus1=p3udt55lv.1.2 bus2=p3udm194.1.2 switch=n enabled=y phases=2 Linecode=1P_UG_AL_4/0_Sweetbriar_0_416_0_2_2_2_2

New Line.l(r:p3udm210-p3ulv102) Units=km Length=0.0376731 bus1=p3udm210.1.2 bus2=p3ulv102.1.2 switch=n enabled=y phases=2 Linecode=1P_OH_AL_4/0_Zuzara_0_416_0_2_2_2_2

New Line.l(r:p3udm210-p3udt61lv) Units=km Length=0.017470600000000003 bus1=p3udt61lv.1.2 bus2=p3udm210.1.2 switch=n enabled=y phases=2 Linecode=1P_OH_AL_2/0_Rucina_0_416_0_2_2_2_2

New Line.l(r:p3udm211-p3ulv240) Units=km Length=0.0169099 bus1=p3udm211.1.2 bus2=p3ulv240.1.2 switch=n enabled=y phases=2 Linecode=1P_OH_AL_2/0_Rucina_0_416_0_2_2_2_2

New Line.l(r:p3udm211-p3udt61lv) Units=km Length=0.0197175 bus1=p3udt61lv.1.2 bus2=p3udm211.1.2 switch=n enabled=y phases=2 Linecode=1P_OH_AL_2/0_Rucina_0_416_0_2_2_2_2

New Line.l(r:p3udt66lv-p3ulv122) Units=km Length=0.00850243 bus1=p3udt66lv.1.2 bus2=p3ulv122.1.2 switch=n enabled=y phases=2 Linecode=1P_OH_AL_2/0_Rucina_0_416_0_2_2_2_2

New Line.l(r:p3udt66lv-p3ulv33345) Units=km Length=0.007256910000000001 bus1=p3udt66lv.1.2 bus2=p3ulv33345.1.2 switch=n enabled=y phases=2 Linecode=1P_OH_AL_2/0_Rucina_0_416_0_2_2_2_2

New Line.l(r:p3udm237-p3ulv144) Units=km Length=0.011931 bus1=p3udm237.1.2 bus2=p3ulv144.1.2 switch=n enabled=y phases=2 Linecode=1P_UG_AL_1/0_Brenau_0_416_0_2_2_2_2

New Line.l(r:p3udm237-p3udt76lv) Units=km Length=0.00960187 bus1=p3udt76lv.1.2 bus2=p3udm237.1.2 switch=n enabled=y phases=2 Linecode=1P_UG_AL_1/0_Brenau_0_416_0_2_2_2_2

New Line.l(r:p3udm238-p3ulv153) Units=km Length=0.00299708 bus1=p3udm238.1.2 bus2=p3ulv153.1.2 switch=n enabled=y phases=2 Linecode=1P_UG_AL_1/0_Brenau_0_416_0_2_2_2_2

New Line.l(r:p3udm238-p3udt76lv) Units=km Length=0.0202377 bus1=p3udt76lv.1.2 bus2=p3udm238.1.2 switch=n enabled=y phases=2 Linecode=1P_UG_AL_1/0_Brenau_0_416_0_2_2_2_2

New Line.l(r:p3udm245-p3ulv152) Units=km Length=0.00991445 bus1=p3udm245.1.2 bus2=p3ulv152.1.2 switch=n enabled=y phases=2 Linecode=1P_UG_AL_4/0_Sweetbriar_0_416_0_2_2_2_2

New Line.l(r:p3udm245-p3udt79lv) Units=km Length=0.0075229 bus1=p3udt79lv.1.2 bus2=p3udm245.1.2 switch=n enabled=y phases=2 Linecode=1P_UG_AL_4/0_Sweetbriar_0_416_0_2_2_2_2

New Line.l(r:p3udm246-p3ulv226) Units=km Length=0.0080499 bus1=p3udm246.1.2 bus2=p3ulv226.1.2 switch=n enabled=y phases=2 Linecode=1P_UG_AL_4/0_Sweetbriar_0_416_0_2_2_2_2

New Line.l(r:p3udm246-p3udt79lv) Units=km Length=0.0150504 bus1=p3udt79lv.1.2 bus2=p3udm246.1.2 switch=n enabled=y phases=2 Linecode=1P_UG_AL_4/0_Sweetbriar_0_416_0_2_2_2_2

New Line.l(r:p3udt80lv-p3ulv211) Units=km Length=0.0246321 bus1=p3udt80lv.1.2 bus2=p3ulv211.1.2 switch=n enabled=y phases=2 Linecode=1P_UG_AL_4/0_Sweetbriar_0_416_0_2_2_2_2

New Line.l(r:p3udm247-p3ulv155) Units=km Length=0.0197794 bus1=p3udm247.1.2 bus2=p3ulv155.1.2 switch=n enabled=y phases=2 Linecode=1P_UG_AL_4/0_Sweetbriar_0_416_0_2_2_2_2

New Line.l(r:p3udm247-p3udt80lv) Units=km Length=0.00715891 bus1=p3udt80lv.1.2 bus2=p3udm247.1.2 switch=n enabled=y phases=2 Linecode=1P_UG_AL_4/0_Sweetbriar_0_416_0_2_2_2_2

New Line.l(r:p3udm249-p3ulv64849) Units=km Length=0.0249263 bus1=p3udm249.1.2 bus2=p3ulv64849.1.2 switch=n enabled=y phases=2 Linecode=1P_UG_AL_4/0_Sweetbriar_0_416_0_2_2_2_2

New Line.l(r:p3udm249-p3udt80lv) Units=km Length=0.006009 bus1=p3udt80lv.1.2 bus2=p3udm249.1.2 switch=n enabled=y phases=2 Linecode=1P_UG_AL_4/0_Sweetbriar_0_416_0_2_2_2_2

New Line.l(r:p3udt81lv-p3ulv156) Units=km Length=0.0704073 bus1=p3udt81lv.1.2 bus2=p3ulv156.1.2 switch=n enabled=y phases=2 Linecode=1P_UG_AL_1/0_Brenau_0_416_0_2_2_2_2

New Line.l(r:p3udt81lv-p3ulv80802) Units=km Length=0.0265662 bus1=p3udt81lv.1.2 bus2=p3ulv80802.1.2 switch=n enabled=y phases=2 Linecode=1P_UG_AL_1/0_Brenau_0_416_0_2_2_2_2

New Line.l(r:p3udm259-p3ulv168) Units=km Length=0.009957760000000001 bus1=p3udm259.1.2 bus2=p3ulv168.1.2 switch=n enabled=y phases=2 Linecode=1P_UG_AL_4/0_Sweetbriar_0_416_0_2_2_2_2

New Line.l(r:p3udm259-p3udt86lv) Units=km Length=0.028475100000000003 bus1=p3udt86lv.1.2 bus2=p3udm259.1.2 switch=n enabled=y phases=2 Linecode=1P_UG_AL_4/0_Sweetbriar_0_416_0_2_2_2_2

New Line.l(r:p3udm260-p3ulv49574) Units=km Length=0.0158177 bus1=p3udm260.1.2 bus2=p3ulv49574.1.2 switch=n enabled=y phases=2 Linecode=1P_UG_AL_1/0_Brenau_0_416_0_2_2_2_2

New Line.l(r:p3udm260-p3udt86lv) Units=km Length=0.0276229 bus1=p3udt86lv.1.2 bus2=p3udm260.1.2 switch=n enabled=y phases=2 Linecode=1P_UG_AL_1/0_Brenau_0_416_0_2_2_2_2

New Line.l(r:p3udt90lv-p3ulv182) Units=km Length=0.0184925 bus1=p3udt90lv.1.2 bus2=p3ulv182.1.2 switch=n enabled=y phases=2 Linecode=1P_OH_AL_2/0_Rucina_0_416_0_2_2_2_2

New Line.l(r:p3udt94lv-p3ulv186) Units=km Length=0.00998323 bus1=p3udt94lv.1.2 bus2=p3ulv186.1.2 switch=n enabled=y phases=2 Linecode=1P_UG_AL_1/0_Brenau_0_416_0_2_2_2_2

New Line.l(r:p3udt94lv-p3ulv238) Units=km Length=0.0171325 bus1=p3udt94lv.1.2 bus2=p3ulv238.1.2 switch=n enabled=y phases=2 Linecode=1P_UG_AL_1/0_Brenau_0_416_0_2_2_2_2

New Line.l(r:p3udm275-p3ulv251) Units=km Length=0.0093863 bus1=p3udm275.1.2 bus2=p3ulv251.1.2 switch=n enabled=y phases=2 Linecode=1P_UG_AL_4/0_Sweetbriar_0_416_0_2_2_2_2

New Line.l(r:p3udm275-p3udt94lv) Units=km Length=0.009582160000000001 bus1=p3udt94lv.1.2 bus2=p3udm275.1.2 switch=n enabled=y phases=2 Linecode=1P_UG_AL_4/0_Sweetbriar_0_416_0_2_2_2_2

New Line.l(r:p3udt98lv-p3ulv192) Units=km Length=0.0154614 bus1=p3udt98lv.1.2 bus2=p3ulv192.1.2 switch=n enabled=y phases=2 Linecode=1P_OH_AL_2/0_Rucina_0_416_0_2_2_2_2

New Line.l(r:p3udt98lv-p3ulv54151) Units=km Length=0.0166394 bus1=p3udt98lv.1.2 bus2=p3ulv54151.1.2 switch=n enabled=y phases=2 Linecode=1P_OH_AL_2/0_Rucina_0_416_0_2_2_2_2

New Line.l(r:p3udt98lv-p3ulv61043) Units=km Length=0.0388213 bus1=p3udt98lv.1.2 bus2=p3ulv61043.1.2 switch=n enabled=y phases=2 Linecode=1P_OH_AL_4/0_Zuzara_0_416_0_2_2_2_2

New Line.l(r:p3udm281-p3ulv237) Units=km Length=0.0170075 bus1=p3udm281.1.2 bus2=p3ulv237.1.2 switch=n enabled=y phases=2 Linecode=1P_OH_AL_2/0_Rucina_0_416_0_2_2_2_2

New Line.l(r:p3udm281-p3udt98lv) Units=km Length=0.017470600000000003 bus1=p3udt98lv.1.2 bus2=p3udm281.1.2 switch=n enabled=y phases=2 Linecode=1P_OH_AL_2/0_Rucina_0_416_0_2_2_2_2

New Line.l(r:p3udm284-p3ulv80213) Units=km Length=0.0145891 bus1=p3udm284.1.2 bus2=p3ulv80213.1.2 switch=n enabled=y phases=2 Linecode=1P_OH_AL_2/0_Rucina_0_416_0_2_2_2_2

New Line.l(r:p3udm284-p3udt98lv) Units=km Length=0.017470600000000003 bus1=p3udt98lv.1.2 bus2=p3udm284.1.2 switch=n enabled=y phases=2 Linecode=1P_OH_AL_2/0_Rucina_0_416_0_2_2_2_2

New Line.l(r:p3udt100lv-p3ulv29410) Units=km Length=0.0175052 bus1=p3udt100lv.1.2 bus2=p3ulv29410.1.2 switch=n enabled=y phases=2 Linecode=1P_OH_AL_2/0_Rucina_0_416_0_2_2_2_2

New Line.l(r:p3udm287-p3ulv198) Units=km Length=0.014585 bus1=p3udm287.1.2 bus2=p3ulv198.1.2 switch=n enabled=y phases=2 Linecode=1P_OH_AL_2/0_Rucina_0_416_0_2_2_2_2

New Line.l(r:p3udm287-p3udt100lv) Units=km Length=0.0197895 bus1=p3udt100lv.1.2 bus2=p3udm287.1.2 switch=n enabled=y phases=2 Linecode=1P_OH_AL_2/0_Rucina_0_416_0_2_2_2_2

New Line.l(r:p3udm289-p3ulv41808) Units=km Length=0.0189953 bus1=p3udm289.1.2 bus2=p3ulv41808.1.2 switch=n enabled=y phases=2 Linecode=1P_OH_AL_2/0_Rucina_0_416_0_2_2_2_2

New Line.l(r:p3udm289-p3udt100lv) Units=km Length=0.0178137 bus1=p3udt100lv.1.2 bus2=p3udm289.1.2 switch=n enabled=y phases=2 Linecode=1P_OH_AL_2/0_Rucina_0_416_0_2_2_2_2

New Line.l(r:p3udm297-p3ulv218) Units=km Length=0.0128133 bus1=p3udm297.1.2 bus2=p3ulv218.1.2 switch=n enabled=y phases=2 Linecode=1P_OH_AL_2/0_Rucina_0_416_0_2_2_2_2

New Line.l(r:p3udm297-p3ulv36412) Units=km Length=0.00884192 bus1=p3udm297.1.2 bus2=p3ulv36412.1.2 switch=n enabled=y phases=2 Linecode=1P_OH_AL_2/0_Rucina_0_416_0_2_2_2_2

New Line.l(r:p3udm297-p3udt106lv) Units=km Length=0.0194272 bus1=p3udt106lv.1.2 bus2=p3udm297.1.2 switch=n enabled=y phases=2 Linecode=1P_OH_AL_2/0_Rucina_0_416_0_2_0_2_2_2

New Line.l(r:p3udm298-p3ulv33343) Units=km Length=0.0143714 bus1=p3udm298.1.2 bus2=p3ulv33343.1.2 switch=n enabled=y phases=2 Linecode=1P_OH_AL_2/0_Rucina_0_416_0_2_2_2_2

New Line.l(r:p3udm298-p3udt106lv) Units=km Length=0.0183669 bus1=p3udt106lv.1.2 bus2=p3udm298.1.2 switch=n enabled=y phases=2 Linecode=1P_OH_AL_2/0_Rucina_0_416_0_2_2_2_2

New Line.l(r:p3udt107lv-p3ulv67163) Units=km Length=0.0185688 bus1=p3udt107lv.1.2 bus2=p3ulv67163.1.2 switch=n enabled=y phases=2 Linecode=1P_UG_AL_1/0_Brenau_0_416_0_2_2_2_2

New Line.l(r:p3udm300-p3ulv221) Units=km Length=0.0117249 bus1=p3udm300.1.2 bus2=p3ulv221.1.2 switch=n enabled=y phases=2 Linecode=1P_UG_AL_4/0_Sweetbriar_0_416_0_2_2_2_2

New Line.l(r:p3udm300-p3udt107lv) Units=km Length=0.00918532 bus1=p3udt107lv.1.2 bus2=p3udm300.1.2 switch=n enabled=y phases=2 Linecode=1P_UG_AL_4/0_Sweetbriar_0_416_0_2_2_2_2

New Line.l(r:p3udt112lv-p3ulv241) Units=km Length=0.00973982 bus1=p3udt112lv.1.2 bus2=p3ulv241.1.2 switch=n enabled=y phases=2 Linecode=1P_UG_AL_4/0_Sweetbriar_0_416_0_2_2_2_2

New Line.l(r:p3udt113lv-p3ulv250) Units=km Length=0.00832827 bus1=p3udt113lv.1.2 bus2=p3ulv250.1.2 switch=n enabled=y phases=2 Linecode=1P_UG_AL_4/0_Sweetbriar_0_416_0_2_2_2_2

New Line.l(r:p3udt115lv-p3ulv255) Units=km Length=0.0226064 bus1=p3udt115lv.1.2 bus2=p3ulv255.1.2 switch=n enabled=y phases=2 Linecode=1P_UG_AL_4/0_Sweetbriar_0_416_0_2_2_2_2

New Line.l(r:p3udt306lv-p3ulv452) Units=km Length=0.0167745 bus1=p3udt306lv.1.2 bus2=p3ulv452.1.2 switch=n enabled=y phases=2 Linecode=1P_UG_AL_1/0_Brenau_0_416_0_2_2_2_2

New Line.l(r:p3udm920-p3ulv33340) Units=km Length=0.0163165 bus1=p3udm920.1.2 bus2=p3ulv33340.1.2 switch=n enabled=y phases=2 Linecode=1P_UG_AL_1/0_Brenau_0_416_0_2_2_2_2

New Line.l(r:p3udm920-p3ulv70268) Units=km Length=0.0145876 bus1=p3udm920.1.2 bus2=p3ulv70268.1.2 switch=n enabled=y phases=2 Linecode=1P_UG_AL_1/0_Brenau_0_416_0_2_2_2_2

New Line.l(r:p3udm919-p3ulv17729) Units=km Length=0.015249200000000001 bus1=p3udm919.1.2 bus2=p3ulv17729.1.2 switch=n enabled=y phases=2 Linecode=1P_UG_AL_1/0_Brenau_0_416_0_2_2_2_2

New Line.l(r:p3udm919-p3udm920) Units=km Length=0.00932752 bus1=p3udm920.1.2 bus2=p3udm919.1.2 switch=n enabled=y phases=2 Linecode=1P_UG_AL_1/0_Brenau_0_416_0_2_2_2_2

New Line.l(r:p3udm920-p3udt306lv) Units=km Length=0.00933126 bus1=p3udt306lv.1.2 bus2=p3udm920.1.2 switch=n enabled=y phases=2 Linecode=1P_UG_AL_4/0_Sweetbriar_0_416_0_2_2_2_2

New Line.l(r:p3udm921-p3ulv64848) Units=km Length=0.0150482 bus1=p3udm921.1.2 bus2=p3ulv64848.1.2 switch=n enabled=y phases=2 Linecode=1P_UG_AL_1/0_Brenau_0_416_0_2_2_2_2

New Line.l(r:p3udm923-p3ulv76368) Units=km Length=0.0115392 bus1=p3udm923.1.2 bus2=p3ulv76368.1.2 switch=n enabled=y phases=2 Linecode=1P_UG_AL_1/0_Brenau_0_416_0_2_2_2_2

New Line.l(r:p3udm921-p3udm923) Units=km Length=0.0191933 bus1=p3udm921.1.2 bus2=p3udm923.1.2 switch=n enabled=y phases=2 Linecode=1P_UG_AL_1/0_Brenau_0_416_0_2_2_2_2

New Line.l(r:p3udm921-p3udt306lv) Units=km Length=0.00933126 bus1=p3udt306lv.1.2 bus2=p3udm921.1.2 switch=n enabled=y phases=2 Linecode=1P_UG_AL_4/0_Sweetbriar_0_416_0_2_2_2_2

New Line.l(r:p3udm924-p3ulv453) Units=km Length=0.0170635 bus1=p3udm924.1.2 bus2=p3ulv453.1.2 switch=n enabled=y phases=2 Linecode=1P_OH_AL_2/0_Rucina_0_416_0_2_2_2_2

New Line.l(r:p3udm925-p3ulv10709) Units=km Length=0.0136296 bus1=p3udm925.1.2 bus2=p3ulv10709.1.2 switch=n enabled=y phases=2 Linecode=1P_OH_AL_2/0_Rucina_0_416_0_2_2_2_2

New Line.l(r:p3udm924-p3udm925) Units=km Length=0.0341719 bus1=p3udm924.1.2 bus2=p3udm925.1.2 switch=n enabled=y phases=2 Linecode=1P_OH_AL_4/0_Zuzara_0_416_0_2_2_2_2

New Line.l(r:p3udm924-p3udt307lv) Units=km Length=0.0170884 bus1=p3udt307lv.1.2 bus2=p3udm924.1.2 switch=n enabled=y phases=2 Linecode=1P_OH_AL_2/0_Rucina_0_416_0_2_2_2_2

New Line.l(r:p3udm927-p3ulv57220) Units=km Length=0.0138526 bus1=p3udm927.1.2 bus2=p3ulv57220.1.2 switch=n enabled=y phases=2 Linecode=1P_UG_AL_1/0_Brenau_0_416_0_2_2_2_2

New Line.l(r:p3udm926-p3ulv13833) Units=km Length=0.014502300000000001 bus1=p3udm926.1.2 bus2=p3ulv13833.1.2 switch=n enabled=y phases=2 Linecode=1P_OH_AL_2/0_Rucina_0_416_0_2_2_2_2

New Line.l(r:p3udm926-p3udm927) Units=km Length=0.019635900000000005 bus1=p3udm927.1.2 bus2=p3udm926.1.2 switch=n enabled=y phases=2 Linecode=1P_OH_AL_2/0_Rucina_0_416_0_2_2_2_2

New Line.l(r:p3udm927-p3udt307lv) Units=km Length=0.0170971 bus1=p3udt307lv.1.2 bus2=p3udm927.1.2 switch=n enabled=y phases=2 Linecode=1P_OH_AL_2/0_Rucina_0_416_0_2_2_2_2

New Line.l(r:p3udt318lv-p3ulv464) Units=km Length=0.016222200000000003 bus1=p3udt318lv.1.2 bus2=p3ulv464.1.2 switch=n enabled=y phases=2 Linecode=1P_UG_AL_1/0_Brenau_0_416_0_2_2_2_2

New Line.l(r:p3udt318lv-p3ulv67171) Units=km Length=0.0153858 bus1=p3udt318lv.1.2 bus2=p3ulv67171.1.2 switch=n enabled=y phases=2 Linecode=1P_UG_AL_1/0_Brenau_0_416_0_2_2_2_2

New Line.l(r:p3udt318lv-p3ulv71813) Units=km Length=0.0154217 bus1=p3udt318lv.1.2 bus2=p3ulv71813.1.2 switch=n enabled=y phases=2 Linecode=1P_UG_AL_1/0_Brenau_0_416_0_2_2_2_2

New Line.l(r:p3udm969-p3ulv64093) Units=km Length=0.0160879 bus1=p3udm969.1.2 bus2=p3ulv64093.1.2 switch=n enabled=y phases=2 Linecode=1P_UG_AL_1/0_Brenau_0_416_0_2_2_2_2

New Line.l(r:p3udm969-p3udt318lv) Units=km Length=0.0096371 bus1=p3udt318lv.1.2 bus2=p3udm969.1.2 switch=n enabled=y phases=2 Linecode=1P_UG_AL_1/0_Brenau_0_416_0_2_2_2_2

New Line.l(r:p3udt319lv-p3ulv465) Units=km Length=0.0125982 bus1=p3udt319lv.1.2 bus2=p3ulv465.1.2 switch=n enabled=y phases=2 Linecode=1P_UG_AL_1/0_Brenau_0_416_0_2_2_2_2

New Line.l(r:p3udm973-p3ulv34113) Units=km Length=0.0236374 bus1=p3udm973.1.2 bus2=p3ulv34113.1.2 switch=n enabled=y phases=2 Linecode=1P_UG_AL_1/0_Brenau_0_416_0_2_2_2_2

New Line.l(r:p3udm973-p3ulv35677) Units=km Length=0.0134539 bus1=p3udm973.1.2 bus2=p3ulv35677.1.2 switch=n enabled=y phases=2 Linecode=1P_UG_AL_1/0_Brenau_0_416_0_2_2_2_2

New Line.l(r:p3udm973-p3udt319lv) Units=km Length=0.009934840000000002 bus1=p3udt319lv.1.2 bus2=p3udm973.1.2 switch=n enabled=y phases=2 Linecode=1P_UG_AL_4/0_Sweetbriar_0_416_0_2_2_2_2

New Line.l(r:p3udm975-p3ulv50343) Units=km Length=0.00900536 bus1=p3udm975.1.2 bus2=p3ulv50343.1.2 switch=n enabled=y phases=2 Linecode=1P_UG_AL_1/0_Brenau_0_416_0_2_2_2_2

New Line.l(r:p3udm975-p3udt319lv) Units=km Length=0.00993018 bus1=p3udt319lv.1.2 bus2=p3udm975.1.2 switch=n enabled=y phases=2 Linecode=1P_UG_AL_1/0_Brenau_0_416_0_2_2_2_2

New Line.l(r:p3udm976-p3ulv466) Units=km Length=0.0142317 bus1=p3udm976.1.2 bus2=p3ulv466.1.2 switch=n enabled=y phases=2 Linecode=1P_UG_AL_4/0_Sweetbriar_0_416_0_2_2_2_2

New Line.l(r:p3udm976-p3ulv29428) Units=km Length=0.0182092 bus1=p3udm976.1.2 bus2=p3ulv29428.1.2 switch=n enabled=y phases=2 Linecode=1P_UG_AL_1/0_Brenau_0_416_0_2_2_2_2

New Line.l(r:p3udm977-p3ulv5984) Units=km Length=0.016561200000000005 bus1=p3udm977.1.2 bus2=p3ulv5984.1.2 switch=n enabled=y phases=2 Linecode=1P_UG_AL_1/0_Brenau_0_416_0_2_2_2_2

New Line.l(r:p3udm976-p3udm977) Units=km Length=0.00992854 bus1=p3udm976.1.2 bus2=p3udm977.1.2 switch=n enabled=y phases=2 Linecode=1P_UG_AL_1/0_Brenau_0_416_0_2_2_2_2

New Line.l(r:p3udm976-p3udt320lv) Units=km Length=0.0099331 bus1=p3udt320lv.1.2 bus2=p3udm976.1.2 switch=n enabled=y phases=2 Linecode=1P_UG_AL_4/0_Sweetbriar_0_416_0_2_2_2_2

New Line.l(r:p3udm979-p3ulv52626) Units=km Length=0.0131389 bus1=p3udm979.1.2 bus2=p3ulv52626.1.2 switch=n enabled=y phases=2 Linecode=1P_UG_AL_1/0_Brenau_0_416_0_2_2_2_2

New Line.l(r:p3udm979-p3ulv58018) Units=km Length=0.0167909 bus1=p3udm979.1.2 bus2=p3ulv58018.1.2 switch=n enabled=y phases=2 Linecode=1P_UG_AL_1/0_Brenau_0_416_0_2_2_2_2

New Line.l(r:p3udm979-p3udt320lv) Units=km Length=0.0099331 bus1=p3udt320lv.1.2 bus2=p3udm979.1.2 switch=n enabled=y phases=2 Linecode=1P_UG_AL_4/0_Sweetbriar_0_416_0_2_2_2_2

New Line.l(r:p3udt322lv-p3ulv468) Units=km Length=0.0169532 bus1=p3udt322lv.1.2 bus2=p3ulv468.1.2 switch=n enabled=y phases=2 Linecode=1P_UG_AL_1/0_Brenau_0_416_0_2_2_2_2

New Line.l(r:p3udm985-p3ulv27922) Units=km Length=0.0178366 bus1=p3udm985.1.2 bus2=p3ulv27922.1.2 switch=n enabled=y phases=2 Linecode=1P_UG_AL_1/0_Brenau_0_416_0_2_2_2_2

New Line.l(r:p3udm985-p3udt322lv) Units=km Length=0.00563491 bus1=p3udt322lv.1.2 bus2=p3udm985.1.2 switch=n enabled=y phases=2 Linecode=1P_UG_AL_1/0_Brenau_0_416_0_2_2_2_2

New Line.l(r:p3udm986-p3ulv31746) Units=km Length=0.014995300000000001 bus1=p3udm986.1.2 bus2=p3ulv31746.1.2 switch=n enabled=y phases=2 Linecode=1P_UG_AL_1/0_Brenau_0_416_0_2_2_2_2

New Line.l(r:p3udm986-p3ulv66385) Units=km Length=0.0358426 bus1=p3udm986.1.2 bus2=p3ulv66385.1.2 switch=n enabled=y phases=2 Linecode=1P_UG_AL_1/0_Brenau_0_416_0_2_2_2_2

New Line.l(r:p3udm986-p3udt322lv) Units=km Length=0.00932846 bus1=p3udt322lv.1.2 bus2=p3udm986.1.2 switch=n enabled=y phases=2 Linecode=1P_UG_AL_4/0_Sweetbriar_0_416_0_2_2_2_2

New Line.l(r:p3udt331lv-p3ulv477) Units=km Length=0.00675635 bus1=p3udt331lv.1.2 bus2=p3ulv477.1.2 switch=n enabled=y phases=2 Linecode=1P_OH_AL_2/0_Rucina_0_416_0_2_2_2_2

New Line.l(r:p3udt338lv-p3ulv484) Units=km Length=0.0144015 bus1=p3udt338lv.1.2 bus2=p3ulv484.1.2 switch=n enabled=y phases=2 Linecode=1P_OH_AL_2/0_Rucina_0_416_0_2_2_2_2

New Line.l(r:p3udm1030-p3ulv485) Units=km Length=0.00861827 bus1=p3udm1030.1.2 bus2=p3ulv485.1.2 switch=n enabled=y phases=2 Linecode=1P_UG_AL_1/0_Brenau_0_416_0_2_2_2_2

New Line.l(r:p3udm1030-p3udt339lv) Units=km Length=0.00563032 bus1=p3udt339lv.1.2 bus2=p3udm1030.1.2 switch=n enabled=y phases=2 Linecode=1P_UG_AL_1/0_Brenau_0_416_0_2_2_2_2

New Line.l(r:p3udm1031-p3ulv52645) Units=km Length=0.00783661 bus1=p3udm1031.1.2 bus2=p3ulv52645.1.2 switch=n enabled=y phases=2 Linecode=1P_UG_AL_1/0_Brenau_0_416_0_2_2_2_2
