New Load.load_p3ulv4 conn=wye bus1=p3ulv4.1.2.3 kV=0.48 Vminpu=0.8 Vmaxpu=1.2 model=1 kW=25.660299999999996 kvar=5.21054614946674 Phases=3

New Load.load_p3ulv7 conn=wye bus1=p3ulv7.1.2 kV=0.2080002494301389 Vminpu=0.8 Vmaxpu=1.2 model=1 kW=5.41005 kvar=1.101385051554455 Phases=2

New Load.load_p3ulv8 conn=wye bus1=p3ulv8.1.2 kV=0.2080002494301389 Vminpu=0.8 Vmaxpu=1.2 model=1 kW=5.20005 kvar=1.061344635376904 Phases=2

New Load.load_p3ulv17 conn=wye bus1=p3ulv17.1.2 kV=0.2080002494301389 Vminpu=0.8 Vmaxpu=1.2 model=1 kW=16.4702 kvar=3.3357890888418114 Phases=2

New Load.load_p3ulv19 conn=wye bus1=p3ulv19.1.2 kV=0.2080002494301389 Vminpu=0.8 Vmaxpu=1.2 model=1 kW=5.97006 kvar=1.2091450624601374 Phases=2

New Load.load_p3ulv20 conn=wye bus1=p3ulv20.1.2 kV=0.2080002494301389 Vminpu=0.8 Vmaxpu=1.2 model=1 kW=5.28005 kvar=1.069394007270052 Phases=2

New Load.load_p3ulv21 conn=wye bus1=p3ulv21.1.2 kV=0.2080002494301389 Vminpu=0.8 Vmaxpu=1.2 model=1 kW=5.19005 kvar=1.0511658729428572 Phases=2

New Load.load_p3ulv22 conn=wye bus1=p3ulv22.1.2 kV=0.2080002494301389 Vminpu=0.8 Vmaxpu=1.2 model=1 kW=4.26004 kvar=0.8694859858061031 Phases=2

New Load.load_p3ulv26 conn=wye bus1=p3ulv26.1.2.3 kV=0.48 Vminpu=0.8 Vmaxpu=1.2 model=1 kW=25.5203 kvar=5.1821179369779795 Phases=3

New Load.load_p3ulv32 conn=wye bus1=p3ulv32.1.2 kV=0.2080002494301389 Vminpu=0.8 Vmaxpu=1.2 model=1 kW=5.29005 kvar=1.0686419089616372 Phases=2

New Load.load_p3ulv35 conn=wye bus1=p3ulv35.1.2 kV=0.2080002494301389 Vminpu=0.8 Vmaxpu=1.2 model=1 kW=5.130050000000001 kvar=1.0390137833913942 Phases=2

New Load.load_p3ulv38 conn=wye bus1=p3ulv38.1.2 kV=0.2080002494301389 Vminpu=0.8 Vmaxpu=1.2 model=1 kW=4.99005 kvar=1.0106589077713133 Phases=2

New Load.load_p3ulv40 conn=wye bus1=p3ulv40.1.2.3 kV=0.48 Vminpu=0.8 Vmaxpu=1.2 model=1 kW=24.260199999999998 kvar=4.926243718713071 Phases=3

New Load.load_p3ulv41 conn=wye bus1=p3ulv41.1.2.3 kV=0.48 Vminpu=0.8 Vmaxpu=1.2 model=1 kW=39.7404 kvar=8.069632397059584 Phases=3

New Load.load_p3ulv50 conn=wye bus1=p3ulv50.1.2 kV=0.2080002494301389 Vminpu=0.8 Vmaxpu=1.2 model=1 kW=5.16005 kvar=1.0504897247296356 Phases=2

New Load.load_p3ulv51 conn=wye bus1=p3ulv51.1.2 kV=0.2080002494301389 Vminpu=0.8 Vmaxpu=1.2 model=1 kW=5.79006 kvar=1.1787479841412536 Phases=2

New Load.load_p3ulv54 conn=wye bus1=p3ulv54.1.2 kV=0.2080002494301389 Vminpu=0.8 Vmaxpu=1.2 model=1 kW=16.6302 kvar=3.3769061380756176 Phases=2

New Load.load_p3ulv60 conn=wye bus1=p3ulv60.1.2 kV=0.2080002494301389 Vminpu=0.8 Vmaxpu=1.2 model=1 kW=5.27005 kvar=1.0701292944742342 Phases=2

New Load.load_p3ulv62 conn=wye bus1=p3ulv62.1.2 kV=0.2080002494301389 Vminpu=0.8 Vmaxpu=1.2 model=1 kW=5.23005 kvar=1.059267265977166 Phases=2

New Load.load_p3ulv64 conn=wye bus1=p3ulv64.1.2 kV=0.2080002494301389 Vminpu=0.8 Vmaxpu=1.2 model=1 kW=5.47005 kvar=1.110741026601035 Phases=2

New Load.load_p3ulv65 conn=wye bus1=p3ulv65.1.2 kV=0.2080002494301389 Vminpu=0.8 Vmaxpu=1.2 model=1 kW=5.51006 kvar=1.1188654036130017 Phases=2

New Load.load_p3ulv66 conn=wye bus1=p3ulv66.1.2 kV=0.2080002494301389 Vminpu=0.8 Vmaxpu=1.2 model=1 kW=5.26005 kvar=1.070847855459563 Phases=2

New Load.load_p3ulv70 conn=wye bus1=p3ulv70.1.2 kV=0.2080002494301389 Vminpu=0.8 Vmaxpu=1.2 model=1 kW=5.24005 kvar=1.0612926142357433 Phases=2

New Load.load_p3ulv82 conn=wye bus1=p3ulv82.1.2 kV=0.2080002494301389 Vminpu=0.8 Vmaxpu=1.2 model=1 kW=18.7602 kvar=3.809421085226047 Phases=2

New Load.load_p3ulv87 conn=wye bus1=p3ulv87.1.2 kV=0.2080002494301389 Vminpu=0.8 Vmaxpu=1.2 model=1 kW=17.5102 kvar=3.555597759433542 Phases=2

New Load.load_p3ulv90 conn=wye bus1=p3ulv90.1.2 kV=0.2080002494301389 Vminpu=0.8 Vmaxpu=1.2 model=1 kW=17.2102 kvar=3.503675014882022 Phases=2

New Load.load_p3ulv91 conn=wye bus1=p3ulv91.1.2 kV=0.2080002494301389 Vminpu=0.8 Vmaxpu=1.2 model=1 kW=5.35005 kvar=1.0891701731164982 Phases=2

New Load.load_p3ulv94 conn=wye bus1=p3ulv94.1.2 kV=0.2080002494301389 Vminpu=0.8 Vmaxpu=1.2 model=1 kW=18.4702 kvar=3.7505340736421853 Phases=2

New Load.load_p3ulv101 conn=wye bus1=p3ulv101.1.2.3 kV=0.48 Vminpu=0.8 Vmaxpu=1.2 model=1 kW=24.8602 kvar=5.048078915093472 Phases=3

New Load.load_p3ulv102 conn=wye bus1=p3ulv102.1.2 kV=0.2080002494301389 Vminpu=0.8 Vmaxpu=1.2 model=1 kW=15.900200000000002 kvar=3.2286733158127956 Phases=2

New Load.load_p3ulv117 conn=wye bus1=p3ulv117.1.2 kV=0.2080002494301389 Vminpu=0.8 Vmaxpu=1.2 model=1 kW=5.59006 kvar=1.1409467586725162 Phases=2

New Load.load_p3ulv122 conn=wye bus1=p3ulv122.1.2 kV=0.2080002494301389 Vminpu=0.8 Vmaxpu=1.2 model=1 kW=17.3802 kvar=3.529200133551121 Phases=2

New Load.load_p3ulv123 conn=wye bus1=p3ulv123.1.2 kV=0.2080002494301389 Vminpu=0.8 Vmaxpu=1.2 model=1 kW=5.22005 kvar=1.059976361442534 Phases=2

New Load.load_p3ulv128 conn=wye bus1=p3ulv128.1.2 kV=0.2080002494301389 Vminpu=0.8 Vmaxpu=1.2 model=1 kW=17.3402 kvar=3.5210777871257615 Phases=2

New Load.load_p3ulv130 conn=wye bus1=p3ulv130.1.2 kV=0.2080002494301389 Vminpu=0.8 Vmaxpu=1.2 model=1 kW=3.44003 kvar=0.7003258045487328 Phases=2

New Load.load_p3ulv131 conn=wye bus1=p3ulv131.1.2 kV=0.2080002494301389 Vminpu=0.8 Vmaxpu=1.2 model=1 kW=17.0602 kvar=3.464221362148239 Phases=2

New Load.load_p3ulv143 conn=wye bus1=p3ulv143.1.2 kV=0.2080002494301389 Vminpu=0.8 Vmaxpu=1.2 model=1 kW=4.95005 kvar=0.999958579116559 Phases=2

New Load.load_p3ulv144 conn=wye bus1=p3ulv144.1.2 kV=0.2080002494301389 Vminpu=0.8 Vmaxpu=1.2 model=1 kW=4.36004 kvar=0.8898962633106831 Phases=2

New Load.load_p3ulv152 conn=wye bus1=p3ulv152.1.2 kV=0.2080002494301389 Vminpu=0.8 Vmaxpu=1.2 model=1 kW=17.7002 kvar=3.603429855458667 Phases=2

New Load.load_p3ulv153 conn=wye bus1=p3ulv153.1.2 kV=0.2080002494301389 Vminpu=0.8 Vmaxpu=1.2 model=1 kW=5.83006 kvar=1.180790186840056 Phases=2

New Load.load_p3ulv155 conn=wye bus1=p3ulv155.1.2 kV=0.2080002494301389 Vminpu=0.8 Vmaxpu=1.2 model=1 kW=16.6302 kvar=3.3769061380756176 Phases=2

New Load.load_p3ulv156 conn=wye bus1=p3ulv156.1.2 kV=0.2080002494301389 Vminpu=0.8 Vmaxpu=1.2 model=1 kW=5.11005 kvar=1.0403106593646716 Phases=2

New Load.load_p3ulv157 conn=wye bus1=p3ulv157.1.2 kV=0.2080002494301389 Vminpu=0.8 Vmaxpu=1.2 model=1 kW=5.22005 kvar=1.059976361442534 Phases=2

New Load.load_p3ulv164 conn=wye bus1=p3ulv164.1.2.3 kV=0.48 Vminpu=0.8 Vmaxpu=1.2 model=1 kW=23.990200000000005 kvar=4.871417880341891 Phases=3

New Load.load_p3ulv168 conn=wye bus1=p3ulv168.1.2 kV=0.2080002494301389 Vminpu=0.8 Vmaxpu=1.2 model=1 kW=16.3302 kvar=3.3159885398854168 Phases=2

New Load.load_p3ulv170 conn=wye bus1=p3ulv170.1.2 kV=0.2080002494301389 Vminpu=0.8 Vmaxpu=1.2 model=1 kW=5.23005 kvar=1.059267265977166 Phases=2

New Load.load_p3ulv179 conn=wye bus1=p3ulv179.1.2 kV=0.2080002494301389 Vminpu=0.8 Vmaxpu=1.2 model=1 kW=5.20005 kvar=1.061344635376904 Phases=2

New Load.load_p3ulv182 conn=wye bus1=p3ulv182.1.2 kV=0.2080002494301389 Vminpu=0.8 Vmaxpu=1.2 model=1 kW=7.76008 kvar=1.5798072311469755 Phases=2

New Load.load_p3ulv186 conn=wye bus1=p3ulv186.1.2 kV=0.2080002494301389 Vminpu=0.8 Vmaxpu=1.2 model=1 kW=2.57003 kvar=0.520520578499115 Phases=2

New Load.load_p3ulv192 conn=wye bus1=p3ulv192.1.2 kV=0.2080002494301389 Vminpu=0.8 Vmaxpu=1.2 model=1 kW=5.54006 kvar=1.1191463774750727 Phases=2

New Load.load_p3ulv195 conn=wye bus1=p3ulv195.1.2 kV=0.2080002494301389 Vminpu=0.8 Vmaxpu=1.2 model=1 kW=5.28005 kvar=1.069394007270052 Phases=2

New Load.load_p3ulv198 conn=wye bus1=p3ulv198.1.2 kV=0.2080002494301389 Vminpu=0.8 Vmaxpu=1.2 model=1 kW=5.71006 kvar=1.1594771357398026 Phases=2

New Load.load_p3ulv211 conn=wye bus1=p3ulv211.1.2 kV=0.2080002494301389 Vminpu=0.8 Vmaxpu=1.2 model=1 kW=17.2302 kvar=3.498741334456021 Phases=2

New Load.load_p3ulv213 conn=wye bus1=p3ulv213.1.2 kV=0.2080002494301389 Vminpu=0.8 Vmaxpu=1.2 model=1 kW=5.06005 kvar=1.030131593999708 Phases=2

New Load.load_p3ulv218 conn=wye bus1=p3ulv218.1.2 kV=0.2080002494301389 Vminpu=0.8 Vmaxpu=1.2 model=1 kW=7.30007 kvar=1.4785184061991627 Phases=2

New Load.load_p3ulv221 conn=wye bus1=p3ulv221.1.2 kV=0.2080002494301389 Vminpu=0.8 Vmaxpu=1.2 model=1 kW=19.1702 kvar=3.8926751360859893 Phases=2

New Load.load_p3ulv226 conn=wye bus1=p3ulv226.1.2 kV=0.2080002494301389 Vminpu=0.8 Vmaxpu=1.2 model=1 kW=17.7302 kvar=3.600270664773023 Phases=2

New Load.load_p3ulv237 conn=wye bus1=p3ulv237.1.2 kV=0.2080002494301389 Vminpu=0.8 Vmaxpu=1.2 model=1 kW=4.68005 kvar=0.9503246847001716 Phases=2

New Load.load_p3ulv238 conn=wye bus1=p3ulv238.1.2 kV=0.2080002494301389 Vminpu=0.8 Vmaxpu=1.2 model=1 kW=0.840008 kvar=0.27995336803745835 Phases=2

New Load.load_p3ulv240 conn=wye bus1=p3ulv240.1.2 kV=0.2080002494301389 Vminpu=0.8 Vmaxpu=1.2 model=1 kW=8.03008 kvar=1.630577289583905 Phases=2

New Load.load_p3ulv241 conn=wye bus1=p3ulv241.1.2 kV=0.2080002494301389 Vminpu=0.8 Vmaxpu=1.2 model=1 kW=16.5902 kvar=3.3687837916502583 Phases=2

New Load.load_p3ulv249 conn=wye bus1=p3ulv249.1.2 kV=0.2080002494301389 Vminpu=0.8 Vmaxpu=1.2 model=1 kW=5.82006 kvar=1.1787648385814788 Phases=2

New Load.load_p3ulv250 conn=wye bus1=p3ulv250.1.2 kV=0.2080002494301389 Vminpu=0.8 Vmaxpu=1.2 model=1 kW=17.0802 kvar=3.4682825353609203 Phases=2

New Load.load_p3ulv251 conn=wye bus1=p3ulv251.1.2 kV=0.2080002494301389 Vminpu=0.8 Vmaxpu=1.2 model=1 kW=12.9001 kvar=2.6194770280447193 Phases=2

New Load.load_p3ulv254 conn=wye bus1=p3ulv254.1.2 kV=0.2080002494301389 Vminpu=0.8 Vmaxpu=1.2 model=1 kW=5.35005 kvar=1.0891701731164982 Phases=2

New Load.load_p3ulv255 conn=wye bus1=p3ulv255.1.2 kV=0.2080002494301389 Vminpu=0.8 Vmaxpu=1.2 model=1 kW=16.520200000000003 kvar=3.3459158301346985 Phases=2

New Load.load_p3ulv259 conn=wye bus1=p3ulv259.1.2 kV=0.2080002494301389 Vminpu=0.8 Vmaxpu=1.2 model=1 kW=17.2502 kvar=3.502802507668701 Phases=2

New Load.load_p3ulv452 conn=wye bus1=p3ulv452.1.2 kV=0.2080002494301389 Vminpu=0.8 Vmaxpu=1.2 model=1 kW=4.920050000000001 kvar=0.9990587632523329 Phases=2

New Load.load_p3ulv453 conn=wye bus1=p3ulv453.1.2 kV=0.2080002494301389 Vminpu=0.8 Vmaxpu=1.2 model=1 kW=13.1201 kvar=2.657277168735866 Phases=2

New Load.load_p3ulv464 conn=wye bus1=p3ulv464.1.2 kV=0.2080002494301389 Vminpu=0.8 Vmaxpu=1.2 model=1 kW=5.86006 kvar=1.1899359348349032 Phases=2

New Load.load_p3ulv465 conn=wye bus1=p3ulv465.1.2 kV=0.2080002494301389 Vminpu=0.8 Vmaxpu=1.2 model=1 kW=5.560060000000001 kvar=1.129018336644702 Phases=2

New Load.load_p3ulv466 conn=wye bus1=p3ulv466.1.2 kV=0.2080002494301389 Vminpu=0.8 Vmaxpu=1.2 model=1 kW=5.33005 kvar=1.0795207485629381 Phases=2

New Load.load_p3ulv468 conn=wye bus1=p3ulv468.1.2 kV=0.2080002494301389 Vminpu=0.8 Vmaxpu=1.2 model=1 kW=5.90006 kvar=1.2011419279441737 Phases=2

New Load.load_p3ulv477 conn=wye bus1=p3ulv477.1.2 kV=0.2080002494301389 Vminpu=0.8 Vmaxpu=1.2 model=1 kW=15.9302 kvar=3.2264202828786437 Phases=2

New Load.load_p3ulv478 conn=wye bus1=p3ulv478.1.2.3 kV=0.48 Vminpu=0.8 Vmaxpu=1.2 model=1 kW=42.0004 kvar=8.528544970092433 Phases=3

New Load.load_p3ulv480 conn=wye bus1=p3ulv480.1.2.3 kV=0.48 Vminpu=0.8 Vmaxpu=1.2 model=1 kW=36.28039999999999 kvar=7.3670494312659285 Phases=3

New Load.load_p3ulv484 conn=wye bus1=p3ulv484.1.2 kV=0.2080002494301389 Vminpu=0.8 Vmaxpu=1.2 model=1 kW=9.18009 kvar=1.8592879295081928 Phases=2

New Load.load_p3ulv485 conn=wye bus1=p3ulv485.1.2 kV=0.2080002494301389 Vminpu=0.8 Vmaxpu=1.2 model=1 kW=6.05006 kvar=1.2285170803553642 Phases=2

New Load.load_p3ulv486 conn=wye bus1=p3ulv486.1.2 kV=0.2080002494301389 Vminpu=0.8 Vmaxpu=1.2 model=1 kW=8.73009 kvar=1.7681472578722188 Phases=2

New Load.load_p3ulv487 conn=wye bus1=p3ulv487.1.2 kV=0.2080002494301389 Vminpu=0.8 Vmaxpu=1.2 model=1 kW=7.18007 kvar=1.4617280371003216 Phases=2

New Load.load_p3ulv971 conn=wye bus1=p3ulv971.1.2 kV=0.2080002494301389 Vminpu=0.8 Vmaxpu=1.2 model=1 kW=6.79007 kvar=1.3787825198111334 Phases=2

New Load.load_p3ulv1208 conn=wye bus1=p3ulv1208.1.2 kV=0.2080002494301389 Vminpu=0.8 Vmaxpu=1.2 model=1 kW=4.01004 kvar=0.810067352976347 Phases=2

New Load.load_p3ulv1209 conn=wye bus1=p3ulv1209.1.2 kV=0.2080002494301389 Vminpu=0.8 Vmaxpu=1.2 model=1 kW=4.91005 kvar=0.9995943979048163 Phases=2

New Load.load_p3ulv1210 conn=wye bus1=p3ulv1210.1.2 kV=0.2080002494301389 Vminpu=0.8 Vmaxpu=1.2 model=1 kW=5.70006 kvar=1.1604256664843182 Phases=2

New Load.load_p3ulv1211 conn=wye bus1=p3ulv1211.1.2 kV=0.2080002494301389 Vminpu=0.8 Vmaxpu=1.2 model=1 kW=17.7502 kvar=3.6043318379857032 Phases=2

New Load.load_p3ulv1222 conn=wye bus1=p3ulv1222.1.2 kV=0.2080002494301389 Vminpu=0.8 Vmaxpu=1.2 model=1 kW=6.07006 kvar=1.2293985450459088 Phases=2

New Load.load_p3ulv1223 conn=wye bus1=p3ulv1223.1.2 kV=0.2080002494301389 Vminpu=0.8 Vmaxpu=1.2 model=1 kW=6.64007 kvar=1.3483237207160328 Phases=2

New Load.load_p3ulv1224 conn=wye bus1=p3ulv1224.1.2 kV=0.2080002494301389 Vminpu=0.8 Vmaxpu=1.2 model=1 kW=5.22005 kvar=1.059976361442534 Phases=2

New Load.load_p3ulv1225 conn=wye bus1=p3ulv1225.1.2 kV=0.2080002494301389 Vminpu=0.8 Vmaxpu=1.2 model=1 kW=7.04007 kvar=1.4295471849696346 Phases=2

New Load.load_p3ulv1226 conn=wye bus1=p3ulv1226.1.2 kV=0.2080002494301389 Vminpu=0.8 Vmaxpu=1.2 model=1 kW=10.090100000000001 kvar=2.048882191663167 Phases=2

New Load.load_p3ulv1227 conn=wye bus1=p3ulv1227.1.2 kV=0.2080002494301389 Vminpu=0.8 Vmaxpu=1.2 model=1 kW=5.61006 kvar=1.1391712696764018 Phases=2

New Load.load_p3ulv1228 conn=wye bus1=p3ulv1228.1.2 kV=0.2080002494301389 Vminpu=0.8 Vmaxpu=1.2 model=1 kW=6.58007 kvar=1.3395792527207553 Phases=2

New Load.load_p3ulv1241 conn=wye bus1=p3ulv1241.1.2 kV=0.2080002494301389 Vminpu=0.8 Vmaxpu=1.2 model=1 kW=8.80009 kvar=1.791533826551297 Phases=2

New Load.load_p3ulv1242 conn=wye bus1=p3ulv1242.1.2 kV=0.2080002494301389 Vminpu=0.8 Vmaxpu=1.2 model=1 kW=7.16007 kvar=1.4501635305790819 Phases=2

New Load.load_p3ulv1244 conn=wye bus1=p3ulv1244.1.2 kV=0.2080002494301389 Vminpu=0.8 Vmaxpu=1.2 model=1 kW=8.72009 kvar=1.7706897960079746 Phases=2

New Load.load_p3ulv1246 conn=wye bus1=p3ulv1246.1.2 kV=0.2080002494301389 Vminpu=0.8 Vmaxpu=1.2 model=1 kW=13.7901 kvar=2.8001992360089827 Phases=2

New Load.load_p3ulv1247 conn=wye bus1=p3ulv1247.1.2 kV=0.2080002494301389 Vminpu=0.8 Vmaxpu=1.2 model=1 kW=7.05007 kvar=1.4315777715759745 Phases=2

New Load.load_p3ulv1248 conn=wye bus1=p3ulv1248.1.2 kV=0.2080002494301389 Vminpu=0.8 Vmaxpu=1.2 model=1 kW=9.49009 kvar=1.932004928587798 Phases=2

New Load.load_p3ulv1249 conn=wye bus1=p3ulv1249.1.2 kV=0.2080002494301389 Vminpu=0.8 Vmaxpu=1.2 model=1 kW=6.270060000000001 kvar=1.269905510217453 Phases=2

New Load.load_p3ulv1250 conn=wye bus1=p3ulv1250.1.2 kV=0.2080002494301389 Vminpu=0.8 Vmaxpu=1.2 model=1 kW=7.36007 kvar=1.4906704957506258 Phases=2

New Load.load_p3ulv1741 conn=wye bus1=p3ulv1741.1.2 kV=0.2080002494301389 Vminpu=0.8 Vmaxpu=1.2 model=1 kW=7.27007 kvar=1.4800503547572565 Phases=2

New Load.load_p3ulv1743 conn=wye bus1=p3ulv1743.1.2 kV=0.2080002494301389 Vminpu=0.8 Vmaxpu=1.2 model=1 kW=5.15005 kvar=1.0511394966246144 Phases=2

New Load.load_p3ulv1994 conn=wye bus1=p3ulv1994.1.2 kV=0.2080002494301389 Vminpu=0.8 Vmaxpu=1.2 model=1 kW=5.68006 kvar=1.1504099629613984 Phases=2

New Load.load_p3ulv1995 conn=wye bus1=p3ulv1995.1.2.3 kV=0.48 Vminpu=0.8 Vmaxpu=1.2 model=1 kW=23.970200000000002 kvar=4.867356707129209 Phases=3

New Load.load_p3ulv2001 conn=wye bus1=p3ulv2001.1.2 kV=0.2080002494301389 Vminpu=0.8 Vmaxpu=1.2 model=1 kW=5.55006 kvar=1.1298884703894267 Phases=2

New Load.load_p3ulv2002 conn=wye bus1=p3ulv2002.1.2 kV=0.2080002494301389 Vminpu=0.8 Vmaxpu=1.2 model=1 kW=5.74006 kvar=1.1595483362074717 Phases=2

New Load.load_p3ulv2004 conn=wye bus1=p3ulv2004.1.2 kV=0.2080002494301389 Vminpu=0.8 Vmaxpu=1.2 model=1 kW=5.22005 kvar=1.059976361442534 Phases=2

New Load.load_p3ulv2005 conn=wye bus1=p3ulv2005.1.2 kV=0.2080002494301389 Vminpu=0.8 Vmaxpu=1.2 model=1 kW=4.17004 kvar=0.8489421946902781 Phases=2

New Load.load_p3ulv2017 conn=wye bus1=p3ulv2017.1.2.3 kV=0.48 Vminpu=0.8 Vmaxpu=1.2 model=1 kW=94.26089999999999 kvar=19.140492104155815 Phases=3

New Load.load_p3ulv2020 conn=wye bus1=p3ulv2020.1.2 kV=0.2080002494301389 Vminpu=0.8 Vmaxpu=1.2 model=1 kW=13.9501 kvar=4.590124504855895 Phases=2

New Load.load_p3ulv2024 conn=wye bus1=p3ulv2024.1.2 kV=0.2080002494301389 Vminpu=0.8 Vmaxpu=1.2 model=1 kW=9.290090000000001 kvar=1.8912886671279427 Phases=2

New Load.load_p3ulv2025 conn=wye bus1=p3ulv2025.1.2 kV=0.2080002494301389 Vminpu=0.8 Vmaxpu=1.2 model=1 kW=5.88006 kvar=1.1909169281329426 Phases=2

New Load.load_p3ulv2544 conn=wye bus1=p3ulv2544.1.2 kV=0.2080002494301389 Vminpu=0.8 Vmaxpu=1.2 model=1 kW=8.44008 kvar=1.7094101330252216 Phases=2

New Load.load_p3ulv2791 conn=wye bus1=p3ulv2791.1.2 kV=0.2080002494301389 Vminpu=0.8 Vmaxpu=1.2 model=1 kW=5.39005 kvar=1.088842888327837 Phases=2

New Load.load_p3ulv2802 conn=wye bus1=p3ulv2802.1.2 kV=0.2080002494301389 Vminpu=0.8 Vmaxpu=1.2 model=1 kW=5.810060000000001 kvar=1.1797830018032032 Phases=2

New Load.load_p3ulv2807 conn=wye bus1=p3ulv2807.1.2.3 kV=0.48 Vminpu=0.8 Vmaxpu=1.2 model=1 kW=28.230300000000003 kvar=5.732406907296132 Phases=3

New Load.load_p3ulv2808 conn=wye bus1=p3ulv2808.1.2 kV=0.2080002494301389 Vminpu=0.8 Vmaxpu=1.2 model=1 kW=14.8201 kvar=3.0093496564620072 Phases=2

New Load.load_p3ulv2809 conn=wye bus1=p3ulv2809.1.2 kV=0.2080002494301389 Vminpu=0.8 Vmaxpu=1.2 model=1 kW=5.770060000000001 kvar=1.1686380972885935 Phases=2

New Load.load_p3ulv2810 conn=wye bus1=p3ulv2810.1.2 kV=0.2080002494301389 Vminpu=0.8 Vmaxpu=1.2 model=1 kW=10.9401 kvar=2.22148205320207 Phases=2

New Load.load_p3ulv2811 conn=wye bus1=p3ulv2811.1.2 kV=0.2080002494301389 Vminpu=0.8 Vmaxpu=1.2 model=1 kW=5.47005 kvar=1.110741026601035 Phases=2

New Load.load_p3ulv2826 conn=wye bus1=p3ulv2826.1.2 kV=0.2080002494301389 Vminpu=0.8 Vmaxpu=1.2 model=1 kW=12.680100000000001 kvar=2.5814313346855657 Phases=2

New Load.load_p3ulv2827 conn=wye bus1=p3ulv2827.1.2 kV=0.2080002494301389 Vminpu=0.8 Vmaxpu=1.2 model=1 kW=16.7102 kvar=3.3931508309263387 Phases=2

New Load.load_p3ulv3594 conn=wye bus1=p3ulv3594.1.2 kV=0.2080002494301389 Vminpu=0.8 Vmaxpu=1.2 model=1 kW=1.48001 kvar=0.2997535676176835 Phases=2

New Load.load_p3ulv3595 conn=wye bus1=p3ulv3595.1.2 kV=0.2080002494301389 Vminpu=0.8 Vmaxpu=1.2 model=1 kW=5.51006 kvar=1.1188654036130017 Phases=2

New Load.load_p3ulv3597 conn=wye bus1=p3ulv3597.1.2 kV=0.2080002494301389 Vminpu=0.8 Vmaxpu=1.2 model=1 kW=3.60004 kvar=0.7291334744808246 Phases=2

New Load.load_p3ulv3598 conn=wye bus1=p3ulv3598.1.2.3 kV=0.48 Vminpu=0.8 Vmaxpu=1.2 model=1 kW=26.700300000000002 kvar=5.421727156526105 Phases=3

New Load.load_p3ulv3608 conn=wye bus1=p3ulv3608.1.2 kV=0.2080002494301389 Vminpu=0.8 Vmaxpu=1.2 model=1 kW=5.12005 kvar=1.0396704953791336 Phases=2

New Load.load_p3ulv3610 conn=wye bus1=p3ulv3610.1.2 kV=0.2080002494301389 Vminpu=0.8 Vmaxpu=1.2 model=1 kW=5.78006 kvar=1.1706634455471703 Phases=2

New Load.load_p3ulv3629 conn=wye bus1=p3ulv3629.1.2 kV=0.2080002494301389 Vminpu=0.8 Vmaxpu=1.2 model=1 kW=5.53006 kvar=1.1200297390827405 Phases=2

New Load.load_p3ulv3633 conn=wye bus1=p3ulv3633.1.2 kV=0.2080002494301389 Vminpu=0.8 Vmaxpu=1.2 model=1 kW=5.340050000000001 kvar=1.078742398644737 Phases=2

New Load.load_p3ulv3634 conn=wye bus1=p3ulv3634.1.2 kV=0.2080002494301389 Vminpu=0.8 Vmaxpu=1.2 model=1 kW=11.0701 kvar=2.247879679084491 Phases=2

New Load.load_p3ulv4143 conn=wye bus1=p3ulv4143.1.2 kV=0.2080002494301389 Vminpu=0.8 Vmaxpu=1.2 model=1 kW=6.04006 kvar=1.2296433109660727 Phases=2

New Load.load_p3ulv4378 conn=wye bus1=p3ulv4378.1.2.3 kV=0.48 Vminpu=0.8 Vmaxpu=1.2 model=1 kW=22.8902 kvar=7.523644904365214 Phases=3

New Load.load_p3ulv4379 conn=wye bus1=p3ulv4379.1.2 kV=0.2080002494301389 Vminpu=0.8 Vmaxpu=1.2 model=1 kW=7.09007 kvar=1.4397001180013347 Phases=2

New Load.load_p3ulv4390 conn=wye bus1=p3ulv4390.1.2 kV=0.2080002494301389 Vminpu=0.8 Vmaxpu=1.2 model=1 kW=5.53006 kvar=1.1200297390827405 Phases=2

New Load.load_p3ulv4391 conn=wye bus1=p3ulv4391.1.2 kV=0.2080002494301389 Vminpu=0.8 Vmaxpu=1.2 model=1 kW=5.340050000000001 kvar=1.078742398644737 Phases=2

New Load.load_p3ulv4395 conn=wye bus1=p3ulv4395.1.2 kV=0.2080002494301389 Vminpu=0.8 Vmaxpu=1.2 model=1 kW=13.7101 kvar=2.776772715991921 Phases=2

New Load.load_p3ulv4396 conn=wye bus1=p3ulv4396.1.2 kV=0.2080002494301389 Vminpu=0.8 Vmaxpu=1.2 model=1 kW=5.16005 kvar=1.0504897247296356 Phases=2

New Load.load_p3ulv4397 conn=wye bus1=p3ulv4397.1.2 kV=0.2080002494301389 Vminpu=0.8 Vmaxpu=1.2 model=1 kW=5.68006 kvar=1.1504099629613984 Phases=2

New Load.load_p3ulv4411 conn=wye bus1=p3ulv4411.1.2 kV=0.2080002494301389 Vminpu=0.8 Vmaxpu=1.2 model=1 kW=10.6601 kvar=2.1590414971258762 Phases=2

New Load.load_p3ulv4412 conn=wye bus1=p3ulv4412.1.2 kV=0.2080002494301389 Vminpu=0.8 Vmaxpu=1.2 model=1 kW=5.35005 kvar=1.0891701731164982 Phases=2

New Load.load_p3ulv4413 conn=wye bus1=p3ulv4413.1.2 kV=0.2080002494301389 Vminpu=0.8 Vmaxpu=1.2 model=1 kW=6.77007 kvar=1.378259701107618 Phases=2

New Load.load_p3ulv4414 conn=wye bus1=p3ulv4414.1.2 kV=0.2080002494301389 Vminpu=0.8 Vmaxpu=1.2 model=1 kW=5.37005 kvar=1.0904351605376348 Phases=2

New Load.load_p3ulv4415 conn=wye bus1=p3ulv4415.1.2 kV=0.2080002494301389 Vminpu=0.8 Vmaxpu=1.2 model=1 kW=5.62006 kvar=1.141201856282742 Phases=2

New Load.load_p3ulv4913 conn=wye bus1=p3ulv4913.1.2 kV=0.2080002494301389 Vminpu=0.8 Vmaxpu=1.2 model=1 kW=5.74006 kvar=1.1685689187762893 Phases=2

New Load.load_p3ulv4915 conn=wye bus1=p3ulv4915.1.2 kV=0.2080002494301389 Vminpu=0.8 Vmaxpu=1.2 model=1 kW=5.850060000000001 kvar=1.19096286257921 Phases=2

New Load.load_p3ulv5166 conn=wye bus1=p3ulv5166.1.2 kV=0.2080002494301389 Vminpu=0.8 Vmaxpu=1.2 model=1 kW=5.00005 kvar=1.0205240803677447 Phases=2

New Load.load_p3ulv5167 conn=wye bus1=p3ulv5167.1.2 kV=0.2080002494301389 Vminpu=0.8 Vmaxpu=1.2 model=1 kW=5.43005 kvar=1.0997742311487098 Phases=2

New Load.load_p3ulv5168 conn=wye bus1=p3ulv5168.1.2 kV=0.2080002494301389 Vminpu=0.8 Vmaxpu=1.2 model=1 kW=5.16005 kvar=1.0504897247296356 Phases=2

New Load.load_p3ulv5182 conn=wye bus1=p3ulv5182.1.2 kV=0.2080002494301389 Vminpu=0.8 Vmaxpu=1.2 model=1 kW=5.93006 kvar=1.2010436694258284 Phases=2

New Load.load_p3ulv5184 conn=wye bus1=p3ulv5184.1.2 kV=0.2080002494301389 Vminpu=0.8 Vmaxpu=1.2 model=1 kW=5.890060000000001 kvar=1.199106114871181 Phases=2

New Load.load_p3ulv5203 conn=wye bus1=p3ulv5203.1.2 kV=0.2080002494301389 Vminpu=0.8 Vmaxpu=1.2 model=1 kW=16.6402 kvar=3.3789367246819584 Phases=2

New Load.load_p3ulv5204 conn=wye bus1=p3ulv5204.1.2 kV=0.2080002494301389 Vminpu=0.8 Vmaxpu=1.2 model=1 kW=12.5301 kvar=2.5377816214798115 Phases=2

New Load.load_p3ulv5205 conn=wye bus1=p3ulv5205.1.2 kV=0.2080002494301389 Vminpu=0.8 Vmaxpu=1.2 model=1 kW=16.1202 kvar=3.273346221152276 Phases=2

New Load.load_p3ulv5968 conn=wye bus1=p3ulv5968.1.2 kV=0.2080002494301389 Vminpu=0.8 Vmaxpu=1.2 model=1 kW=7.56008 kvar=1.5390909696871202 Phases=2

New Load.load_p3ulv5980 conn=wye bus1=p3ulv5980.1.2 kV=0.2080002494301389 Vminpu=0.8 Vmaxpu=1.2 model=1 kW=5.21005 kvar=1.0606687900945995 Phases=2

New Load.load_p3ulv5981 conn=wye bus1=p3ulv5981.1.2 kV=0.2080002494301389 Vminpu=0.8 Vmaxpu=1.2 model=1 kW=4.95005 kvar=0.999958579116559 Phases=2

New Load.load_p3ulv5982 conn=wye bus1=p3ulv5982.1.2 kV=0.2080002494301389 Vminpu=0.8 Vmaxpu=1.2 model=1 kW=6.740070000000001 kvar=1.3686295867794334 Phases=2

New Load.load_p3ulv5983 conn=wye bus1=p3ulv5983.1.2 kV=0.2080002494301389 Vminpu=0.8 Vmaxpu=1.2 model=1 kW=5.07005 kvar=1.0295175623474335 Phases=2

New Load.load_p3ulv5984 conn=wye bus1=p3ulv5984.1.2 kV=0.2080002494301389 Vminpu=0.8 Vmaxpu=1.2 model=1 kW=5.850060000000001 kvar=1.19096286257921 Phases=2

New Load.load_p3ulv5985 conn=wye bus1=p3ulv5985.1.2 kV=0.2080002494301389 Vminpu=0.8 Vmaxpu=1.2 model=1 kW=18.9602 kvar=3.850032817352848 Phases=2

New Load.load_p3ulv5986 conn=wye bus1=p3ulv5986.1.2 kV=0.2080002494301389 Vminpu=0.8 Vmaxpu=1.2 model=1 kW=5.380050000000001 kvar=1.0896474898558242 Phases=2

New Load.load_p3ulv5999 conn=wye bus1=p3ulv5999.1.2 kV=0.2080002494301389 Vminpu=0.8 Vmaxpu=1.2 model=1 kW=19.3902 kvar=3.9373480414254702 Phases=2

New Load.load_p3ulv6000 conn=wye bus1=p3ulv6000.1.2 kV=0.2080002494301389 Vminpu=0.8 Vmaxpu=1.2 model=1 kW=11.9701 kvar=2.4306324736550953 Phases=2

New Load.load_p3ulv6001 conn=wye bus1=p3ulv6001.1.2.3 kV=0.48 Vminpu=0.8 Vmaxpu=1.2 model=1 kW=30.580299999999998 kvar=6.209594759786041 Phases=3

New Load.load_p3ulv6002 conn=wye bus1=p3ulv6002.1.2 kV=0.2080002494301389 Vminpu=0.8 Vmaxpu=1.2 model=1 kW=13.0001 kvar=2.639782894108119 Phases=2

New Load.load_p3ulv6003 conn=wye bus1=p3ulv6003.1.2 kV=0.2080002494301389 Vminpu=0.8 Vmaxpu=1.2 model=1 kW=13.3201 kvar=2.6977841339074105 Phases=2

New Load.load_p3ulv6004 conn=wye bus1=p3ulv6004.1.2 kV=0.2080002494301389 Vminpu=0.8 Vmaxpu=1.2 model=1 kW=11.6901 kvar=2.3676523677593266 Phases=2

New Load.load_p3ulv6527 conn=wye bus1=p3ulv6527.1.2 kV=0.2080002494301389 Vminpu=0.8 Vmaxpu=1.2 model=1 kW=6.88007 kvar=1.4006536449105385 Phases=2

New Load.load_p3ulv6528 conn=wye bus1=p3ulv6528.1.2 kV=0.2080002494301389 Vminpu=0.8 Vmaxpu=1.2 model=1 kW=6.270060000000001 kvar=1.269905510217453 Phases=2

New Load.load_p3ulv6776 conn=wye bus1=p3ulv6776.1.2 kV=0.2080002494301389 Vminpu=0.8 Vmaxpu=1.2 model=1 kW=1.58002 kvar=0.519887923395704 Phases=2

New Load.load_p3ulv6777 conn=wye bus1=p3ulv6777.1.2 kV=0.2080002494301389 Vminpu=0.8 Vmaxpu=1.2 model=1 kW=5.71006 kvar=1.1594771357398026 Phases=2

New Load.load_p3ulv6786 conn=wye bus1=p3ulv6786.1.2 kV=0.2080002494301389 Vminpu=0.8 Vmaxpu=1.2 model=1 kW=4.58005 kvar=0.9300188186367714 Phases=2

New Load.load_p3ulv6801 conn=wye bus1=p3ulv6801.1.2.3 kV=0.48 Vminpu=0.8 Vmaxpu=1.2 model=1 kW=20.7302 kvar=4.209446646675036 Phases=3

New Load.load_p3ulv6802 conn=wye bus1=p3ulv6802.1.2.3 kV=0.48 Vminpu=0.8 Vmaxpu=1.2 model=1 kW=25.030300000000004 kvar=5.082619193267318 Phases=3

New Load.load_p3ulv6803 conn=wye bus1=p3ulv6803.1.2 kV=0.2080002494301389 Vminpu=0.8 Vmaxpu=1.2 model=1 kW=11.3101 kvar=2.3025249436855555 Phases=2

New Load.load_p3ulv7565 conn=wye bus1=p3ulv7565.1.2 kV=0.2080002494301389 Vminpu=0.8 Vmaxpu=1.2 model=1 kW=4.85005 kvar=0.9797575997503596 Phases=2

New Load.load_p3ulv7566 conn=wye bus1=p3ulv7566.1.2 kV=0.2080002494301389 Vminpu=0.8 Vmaxpu=1.2 model=1 kW=4.76005 kvar=0.9690572018099246 Phases=2

New Load.load_p3ulv7567 conn=wye bus1=p3ulv7567.1.2 kV=0.2080002494301389 Vminpu=0.8 Vmaxpu=1.2 model=1 kW=2.84003 kvar=0.5796580042133189 Phases=2

New Load.load_p3ulv7583 conn=wye bus1=p3ulv7583.1.2 kV=0.2080002494301389 Vminpu=0.8 Vmaxpu=1.2 model=1 kW=8.94009 kvar=1.8200352095731958 Phases=2

New Load.load_p3ulv7584 conn=wye bus1=p3ulv7584.1.2 kV=0.2080002494301389 Vminpu=0.8 Vmaxpu=1.2 model=1 kW=5.16005 kvar=1.0504897247296356 Phases=2

New Load.load_p3ulv7603 conn=wye bus1=p3ulv7603.1.2.3 kV=0.48 Vminpu=0.8 Vmaxpu=1.2 model=1 kW=30.250300000000003 kvar=6.14258540177682 Phases=3

New Load.load_p3ulv7604 conn=wye bus1=p3ulv7604.1.2 kV=0.2080002494301389 Vminpu=0.8 Vmaxpu=1.2 model=1 kW=8.58009 kvar=1.742261583519214 Phases=2

New Load.load_p3ulv8138 conn=wye bus1=p3ulv8138.1.2 kV=0.2080002494301389 Vminpu=0.8 Vmaxpu=1.2 model=1 kW=7.58008 kvar=1.5392008922986034 Phases=2

New Load.load_p3ulv8369 conn=wye bus1=p3ulv8369.1.2.3 kV=0.48 Vminpu=0.8 Vmaxpu=1.2 model=1 kW=33.5003 kvar=6.802526048837335 Phases=3

New Load.load_p3ulv8370 conn=wye bus1=p3ulv8370.1.2 kV=0.2080002494301389 Vminpu=0.8 Vmaxpu=1.2 model=1 kW=3.63004 kvar=0.7409012375272501 Phases=2

New Load.load_p3ulv8379 conn=wye bus1=p3ulv8379.1.2 kV=0.2080002494301389 Vminpu=0.8 Vmaxpu=1.2 model=1 kW=15.5002 kvar=3.1474498515591933 Phases=2

New Load.load_p3ulv8380 conn=wye bus1=p3ulv8380.1.2 kV=0.2080002494301389 Vminpu=0.8 Vmaxpu=1.2 model=1 kW=5.33005 kvar=1.0795207485629381 Phases=2

New Load.load_p3ulv8381 conn=wye bus1=p3ulv8381.1.2.3 kV=0.48 Vminpu=0.8 Vmaxpu=1.2 model=1 kW=28.500300000000003 kvar=5.787232745667312 Phases=3

New Load.load_p3ulv8383 conn=wye bus1=p3ulv8383.1.2 kV=0.2080002494301389 Vminpu=0.8 Vmaxpu=1.2 model=1 kW=5.93006 kvar=1.2010436694258284 Phases=2

New Load.load_p3ulv8384 conn=wye bus1=p3ulv8384.1.2 kV=0.2080002494301389 Vminpu=0.8 Vmaxpu=1.2 model=1 kW=6.21006 kvar=1.2610064660568046 Phases=2

New Load.load_p3ulv8393 conn=wye bus1=p3ulv8393.1.2 kV=0.2080002494301389 Vminpu=0.8 Vmaxpu=1.2 model=1 kW=9.7701 kvar=1.9787855021125054 Phases=2

New Load.load_p3ulv8394 conn=wye bus1=p3ulv8394.1.2 kV=0.2080002494301389 Vminpu=0.8 Vmaxpu=1.2 model=1 kW=13.0201 kvar=2.6370236861500937 Phases=2

New Load.load_p3ulv8902 conn=wye bus1=p3ulv8902.1.2 kV=0.2080002494301389 Vminpu=0.8 Vmaxpu=1.2 model=1 kW=6.01006 kvar=1.2203947339300039 Phases=2

New Load.load_p3ulv9133 conn=wye bus1=p3ulv9133.1.2 kV=0.2080002494301389 Vminpu=0.8 Vmaxpu=1.2 model=1 kW=6.140060000000001 kvar=1.2500014416960006 Phases=2

New Load.load_p3ulv9134 conn=wye bus1=p3ulv9134.1.2 kV=0.2080002494301389 Vminpu=0.8 Vmaxpu=1.2 model=1 kW=5.95006 kvar=1.2113209933091376 Phases=2

New Load.load_p3ulv9135 conn=wye bus1=p3ulv9135.1.2 kV=0.2080002494301389 Vminpu=0.8 Vmaxpu=1.2 model=1 kW=6.81007 kvar=1.37927634152888 Phases=2

New Load.load_p3ulv9137 conn=wye bus1=p3ulv9137.1.2 kV=0.2080002494301389 Vminpu=0.8 Vmaxpu=1.2 model=1 kW=8.36008 kvar=1.7019560155265416 Phases=2

New Load.load_p3ulv9150 conn=wye bus1=p3ulv9150.1.2 kV=0.2080002494301389 Vminpu=0.8 Vmaxpu=1.2 model=1 kW=6.60007 kvar=1.3402013742906727 Phases=2

New Load.load_p3ulv9152 conn=wye bus1=p3ulv9152.1.2 kV=0.2080002494301389 Vminpu=0.8 Vmaxpu=1.2 model=1 kW=5.28005 kvar=1.069394007270052 Phases=2

New Load.load_p3ulv9160 conn=wye bus1=p3ulv9160.1.2.3 kV=0.48 Vminpu=0.8 Vmaxpu=1.2 model=1 kW=28.680300000000003 kvar=5.823783304581434 Phases=3

New Load.load_p3ulv9164 conn=wye bus1=p3ulv9164.1.2 kV=0.2080002494301389 Vminpu=0.8 Vmaxpu=1.2 model=1 kW=5.68006 kvar=1.1504099629613984 Phases=2
