New Line.l(r:p2udm438-p2ulv118) Units=km Length=0.0168534 bus1=p2udm438.1.2 bus2=p2ulv118.1.2 switch=n enabled=y phases=2 Linecode=1P_UG_AL_1/0_Brenau_0_416_0_2_2_2_2

New Line.l(r:p2udm438-p2udt115lv) Units=km Length=0.0155737 bus1=p2udt115lv.1.2 bus2=p2udm438.1.2 switch=n enabled=y phases=2 Linecode=1P_UG_AL_1/0_Brenau_0_416_0_2_2_2_2

New Line.l(r:p2udm439-p2ulv3501) Units=km Length=0.0170738 bus1=p2udm439.1.2 bus2=p2ulv3501.1.2 switch=n enabled=y phases=2 Linecode=1P_UG_AL_1/0_Brenau_0_416_0_2_2_2_2

New Line.l(r:p2udm439-p2udt115lv) Units=km Length=0.0077836 bus1=p2udt115lv.1.2 bus2=p2udm439.1.2 switch=n enabled=y phases=2 Linecode=1P_UG_AL_1/0_Brenau_0_416_0_2_2_2_2

New Line.l(r:p2udt368lv-p2ulv381) Units=km Length=0.011214 bus1=p2udt368lv.1.2 bus2=p2ulv381.1.2 switch=n enabled=y phases=2 Linecode=1P_OH_AL_2/0_Rucina_0_416_0_2_2_2_2

New Line.l(r:p2udm1347-p2ulv11869) Units=km Length=0.013466500000000001 bus1=p2udm1347.1.2 bus2=p2ulv11869.1.2 switch=n enabled=y phases=2 Linecode=1P_OH_AL_2/0_Rucina_0_416_0_2_2_2_2

New Line.l(r:p2udm1346-p2ulv3052) Units=km Length=0.008405310000000001 bus1=p2udm1346.1.2 bus2=p2ulv3052.1.2 switch=n enabled=y phases=2 Linecode=1P_OH_AL_2/0_Rucina_0_416_0_2_2_2_2

New Line.l(r:p2udm1346-p2udm1347) Units=km Length=0.016242100000000002 bus1=p2udm1347.1.2 bus2=p2udm1346.1.2 switch=n enabled=y phases=2 Linecode=1P_OH_AL_2/0_Rucina_0_416_0_2_2_2_2

New Line.l(r:p2udm1347-p2udt368lv) Units=km Length=0.016242100000000002 bus1=p2udt368lv.1.2 bus2=p2udm1347.1.2 switch=n enabled=y phases=2 Linecode=1P_OH_AL_2/0_Rucina_0_416_0_2_2_2_2

New Line.l(r:p2udm1348-p2ulv13292) Units=km Length=0.00540693 bus1=p2udm1348.1.2 bus2=p2ulv13292.1.2 switch=n enabled=y phases=2 Linecode=1P_OH_AL_2/0_Rucina_0_416_0_2_2_2_2

New Line.l(r:p2udm1348-p2ulv19434) Units=km Length=0.010731000000000001 bus1=p2udm1348.1.2 bus2=p2ulv19434.1.2 switch=n enabled=y phases=2 Linecode=1P_OH_AL_2/0_Rucina_0_416_0_2_2_2_2

New Line.l(r:p2udm1349-p2ulv17623) Units=km Length=0.0047139 bus1=p2udm1349.1.2 bus2=p2ulv17623.1.2 switch=n enabled=y phases=2 Linecode=1P_OH_AL_2/0_Rucina_0_416_0_2_2_2_2

New Line.l(r:p2udm1348-p2udm1349) Units=km Length=0.0162855 bus1=p2udm1348.1.2 bus2=p2udm1349.1.2 switch=n enabled=y phases=2 Linecode=1P_OH_AL_2/0_Rucina_0_416_0_2_2_2_2

New Line.l(r:p2udm1348-p2udt368lv) Units=km Length=0.016242100000000002 bus1=p2udt368lv.1.2 bus2=p2udm1348.1.2 switch=n enabled=y phases=2 Linecode=1P_OH_AL_2/0_Rucina_0_416_0_2_2_2_2

New Line.l(r:p2udm1434-p2ulv401) Units=km Length=0.0177274 bus1=p2udm1434.1.2 bus2=p2ulv401.1.2 switch=n enabled=y phases=2 Linecode=1P_UG_AL_1/0_Brenau_0_416_0_2_2_2_2

New Line.l(r:p2udm1434-p2udt388lv) Units=km Length=0.0097459 bus1=p2udt388lv.1.2 bus2=p2udm1434.1.2 switch=n enabled=y phases=2 Linecode=1P_UG_AL_1/0_Brenau_0_416_0_2_2_2_2

New Line.l(r:p2udm1435-p2ulv9285) Units=km Length=0.0168863 bus1=p2udm1435.1.2 bus2=p2ulv9285.1.2 switch=n enabled=y phases=2 Linecode=1P_UG_AL_1/0_Brenau_0_416_0_2_2_2_2

New Line.l(r:p2udm1435-p2udt388lv) Units=km Length=0.006024890000000001 bus1=p2udt388lv.1.2 bus2=p2udm1435.1.2 switch=n enabled=y phases=2 Linecode=1P_UG_AL_1/0_Brenau_0_416_0_2_2_2_2

New Line.l(r:p2udt389lv-p2ulv402) Units=km Length=0.0137735 bus1=p2udt389lv.1.2 bus2=p2ulv402.1.2 switch=n enabled=y phases=2 Linecode=1P_UG_AL_1/0_Brenau_0_416_0_2_2_2_2

New Line.l(r:p2udm1437-p2ulv12591) Units=km Length=0.0135424 bus1=p2udm1437.1.2 bus2=p2ulv12591.1.2 switch=n enabled=y phases=2 Linecode=1P_UG_AL_1/0_Brenau_0_416_0_2_2_2_2

New Line.l(r:p2udm1437-p2udt389lv) Units=km Length=0.00928653 bus1=p2udt389lv.1.2 bus2=p2udm1437.1.2 switch=n enabled=y phases=2 Linecode=1P_UG_AL_1/0_Brenau_0_416_0_2_2_2_2

New Line.l(r:p2udt568lv-p2ulv602) Units=km Length=0.012712 bus1=p2udt568lv.1.2 bus2=p2ulv602.1.2 switch=n enabled=y phases=2 Linecode=1P_UG_AL_1/0_Brenau_0_416_0_2_2_2_2

New Line.l(r:p2udt568lv-p2ulv12087) Units=km Length=0.0131741 bus1=p2udt568lv.1.2 bus2=p2ulv12087.1.2 switch=n enabled=y phases=2 Linecode=1P_UG_AL_1/0_Brenau_0_416_0_2_2_2_2

New Line.l(r:p2udm2115-p2ulv3046) Units=km Length=0.0127873 bus1=p2udm2115.1.2 bus2=p2ulv3046.1.2 switch=n enabled=y phases=2 Linecode=1P_UG_AL_1/0_Brenau_0_416_0_2_2_2_2

New Line.l(r:p2udm2115-p2ulv20323) Units=km Length=0.0130793 bus1=p2udm2115.1.2 bus2=p2ulv20323.1.2 switch=n enabled=y phases=2 Linecode=1P_UG_AL_1/0_Brenau_0_416_0_2_2_2_2

New Line.l(r:p2udm2116-p2ulv3500) Units=km Length=0.0119399 bus1=p2udm2116.1.2 bus2=p2ulv3500.1.2 switch=n enabled=y phases=2 Linecode=1P_UG_AL_1/0_Brenau_0_416_0_2_2_2_2

New Line.l(r:p2udm2115-p2udm2116) Units=km Length=0.015343400000000002 bus1=p2udm2115.1.2 bus2=p2udm2116.1.2 switch=n enabled=y phases=2 Linecode=1P_UG_AL_1/0_Brenau_0_416_0_2_2_2_2

New Line.l(r:p2udm2115-p2udt568lv) Units=km Length=0.00967236 bus1=p2udt568lv.1.2 bus2=p2udm2115.1.2 switch=n enabled=y phases=2 Linecode=1P_UG_AL_4/0_Sweetbriar_0_416_0_2_2_2_2

New Line.l(r:p2udm2117-p2ulv10420) Units=km Length=0.012447 bus1=p2udm2117.1.2 bus2=p2ulv10420.1.2 switch=n enabled=y phases=2 Linecode=1P_UG_AL_1/0_Brenau_0_416_0_2_2_2_2

New Line.l(r:p2udm2117-p2udt568lv) Units=km Length=0.00967236 bus1=p2udt568lv.1.2 bus2=p2udm2117.1.2 switch=n enabled=y phases=2 Linecode=1P_UG_AL_1/0_Brenau_0_416_0_2_2_2_2

New Line.l(r:p2udt569lv-p2ulv20774) Units=km Length=0.023295 bus1=p2udt569lv.1.2 bus2=p2ulv20774.1.2 switch=n enabled=y phases=2 Linecode=1P_UG_AL_1/0_Brenau_0_416_0_2_2_2_2

New Line.l(r:p2udm2121-p2ulv1833) Units=km Length=0.0148205 bus1=p2udm2121.1.2 bus2=p2ulv1833.1.2 switch=n enabled=y phases=2 Linecode=1P_UG_AL_1/0_Brenau_0_416_0_2_2_2_2

New Line.l(r:p2udm2121-p2ulv18720) Units=km Length=0.0360295 bus1=p2udm2121.1.2 bus2=p2ulv18720.1.2 switch=n enabled=y phases=2 Linecode=1P_UG_AL_1/0_Brenau_0_416_0_2_2_2_2

New Line.l(r:p2udm2127-p2ulv18721) Units=km Length=0.0145271 bus1=p2udm2127.1.2 bus2=p2ulv18721.1.2 switch=n enabled=y phases=2 Linecode=1P_UG_AL_1/0_Brenau_0_416_0_2_2_2_2

New Line.l(r:p2udm2125-p2ulv17859) Units=km Length=0.014373000000000002 bus1=p2udm2125.1.2 bus2=p2ulv17859.1.2 switch=n enabled=y phases=2 Linecode=1P_UG_AL_1/0_Brenau_0_416_0_2_2_2_2

New Line.l(r:p2udm2125-p2udm2127) Units=km Length=0.019789 bus1=p2udm2127.1.2 bus2=p2udm2125.1.2 switch=n enabled=y phases=2 Linecode=1P_UG_AL_1/0_Brenau_0_416_0_2_2_2_2

New Line.l(r:p2udm2121-p2udm2127) Units=km Length=0.0098877 bus1=p2udm2121.1.2 bus2=p2udm2127.1.2 switch=n enabled=y phases=2 Linecode=1P_UG_AL_2/0_Converse_0_416_0_2_2_2_2

New Line.l(r:p2udm2121-p2udt569lv) Units=km Length=0.0296767 bus1=p2udt569lv.1.2 bus2=p2udm2121.1.2 switch=n enabled=y phases=2 Linecode=1P_UG_AL_4/0_Sweetbriar_0_416_0_2_2_2_2

New Line.l(r:p2udm2123-p2ulv11868) Units=km Length=0.0144012 bus1=p2udm2123.1.2 bus2=p2ulv11868.1.2 switch=n enabled=y phases=2 Linecode=1P_UG_AL_1/0_Brenau_0_416_0_2_2_2_2

New Line.l(r:p2udm2120-p2ulv603) Units=km Length=0.015103 bus1=p2udm2120.1.2 bus2=p2ulv603.1.2 switch=n enabled=y phases=2 Linecode=1P_UG_AL_1/0_Brenau_0_416_0_2_2_2_2

New Line.l(r:p2udm2120-p2ulv6670) Units=km Length=0.0429579 bus1=p2udm2120.1.2 bus2=p2ulv6670.1.2 switch=n enabled=y phases=2 Linecode=1P_UG_AL_1/0_Brenau_0_416_0_2_2_2_2

New Line.l(r:p2udm2124-p2ulv16966) Units=km Length=0.025655300000000002 bus1=p2udm2124.1.2 bus2=p2ulv16966.1.2 switch=n enabled=y phases=2 Linecode=1P_UG_AL_1/0_Brenau_0_416_0_2_2_2_2

New Line.l(r:p2udm2120-p2udm2124) Units=km Length=0.0296767 bus1=p2udm2120.1.2 bus2=p2udm2124.1.2 switch=n enabled=y phases=2 Linecode=1P_UG_AL_1/0_Brenau_0_416_0_2_2_2_2

New Line.l(r:p2udm2120-p2udm2123) Units=km Length=0.0197841 bus1=p2udm2123.1.2 bus2=p2udm2120.1.2 switch=n enabled=y phases=2 Linecode=1P_UG_AL_1/0_Brenau_0_416_0_2_2_2_2

New Line.l(r:p2udm2123-p2udt569lv) Units=km Length=0.00990129 bus1=p2udt569lv.1.2 bus2=p2udm2123.1.2 switch=n enabled=y phases=2 Linecode=1P_UG_AL_2/0_Converse_0_416_0_2_2_2_2

New Line.l(r:p2udt774lv-p2ulv828) Units=km Length=0.0128393 bus1=p2udt774lv.1.2 bus2=p2ulv828.1.2 switch=n enabled=y phases=2 Linecode=1P_UG_AL_1/0_Brenau_0_416_0_2_2_2_2

New Line.l(r:p2udm2866-p2ulv13515) Units=km Length=0.0132466 bus1=p2udm2866.1.2 bus2=p2ulv13515.1.2 switch=n enabled=y phases=2 Linecode=1P_UG_AL_1/0_Brenau_0_416_0_2_2_2_2

New Line.l(r:p2udm2865-p2ulv6175) Units=km Length=0.014384800000000001 bus1=p2udm2865.1.2 bus2=p2ulv6175.1.2 switch=n enabled=y phases=2 Linecode=1P_UG_AL_1/0_Brenau_0_416_0_2_2_2_2

New Line.l(r:p2udm2865-p2ulv23264) Units=km Length=0.0119183 bus1=p2udm2865.1.2 bus2=p2ulv23264.1.2 switch=n enabled=y phases=2 Linecode=1P_UG_AL_1/0_Brenau_0_416_0_2_2_2_2

New Line.l(r:p2udm2865-p2udm2866) Units=km Length=0.00933872 bus1=p2udm2866.1.2 bus2=p2udm2865.1.2 switch=n enabled=y phases=2 Linecode=1P_UG_AL_4/0_Sweetbriar_0_416_0_2_2_2_2

New Line.l(r:p2udm2866-p2udt774lv) Units=km Length=0.00933872 bus1=p2udt774lv.1.2 bus2=p2udm2866.1.2 switch=n enabled=y phases=2 Linecode=1P_UG_AL_4/0_Sweetbriar_0_416_0_2_2_2_2

New Line.l(r:p2udm2867-p2ulv15766) Units=km Length=0.0128562 bus1=p2udm2867.1.2 bus2=p2ulv15766.1.2 switch=n enabled=y phases=2 Linecode=1P_UG_AL_1/0_Brenau_0_416_0_2_2_2_2

New Line.l(r:p2udm2863-p2ulv827) Units=km Length=0.011519 bus1=p2udm2863.1.2 bus2=p2ulv827.1.2 switch=n enabled=y phases=2 Linecode=1P_UG_AL_1/0_Brenau_0_416_0_2_2_2_2

New Line.l(r:p2udm2863-p2udm2867) Units=km Length=0.0228856 bus1=p2udm2867.1.2 bus2=p2udm2863.1.2 switch=n enabled=y phases=2 Linecode=1P_UG_AL_1/0_Brenau_0_416_0_2_2_2_2

New Line.l(r:p2udm2867-p2udt774lv) Units=km Length=0.00932972 bus1=p2udt774lv.1.2 bus2=p2udm2867.1.2 switch=n enabled=y phases=2 Linecode=1P_UG_AL_4/0_Sweetbriar_0_416_0_2_2_2_2

New Line.l(r:p2udt777lv-p2ulv831) Units=km Length=0.0232709 bus1=p2udt777lv.1.2 bus2=p2ulv831.1.2 switch=n enabled=y phases=2 Linecode=1P_UG_AL_1/0_Brenau_0_416_0_2_2_2_2

New Line.l(r:p2udt777lv-p2ulv3996) Units=km Length=0.0243603 bus1=p2udt777lv.1.2 bus2=p2ulv3996.1.2 switch=n enabled=y phases=2 Linecode=1P_UG_AL_1/0_Brenau_0_416_0_2_2_2_2

New Line.l(r:p2udt777lv-p2ulv8111) Units=km Length=0.018922600000000005 bus1=p2udt777lv.1.2 bus2=p2ulv8111.1.2 switch=n enabled=y phases=2 Linecode=1P_UG_AL_1/0_Brenau_0_416_0_2_2_2_2

New Line.l(r:p2udt777lv-p2ulv16961) Units=km Length=0.023041100000000002 bus1=p2udt777lv.1.2 bus2=p2ulv16961.1.2 switch=n enabled=y phases=2 Linecode=1P_UG_AL_4/0_Sweetbriar_0_416_0_2_2_2_2

New Line.l(r:p2udm2888-p2ulv835) Units=km Length=0.0166296 bus1=p2udm2888.1.2 bus2=p2ulv835.1.2 switch=n enabled=y phases=2 Linecode=1P_UG_AL_2/0_Converse_0_416_0_2_2_2_2

New Line.l(r:p2udm2892-p2ulv9936) Units=km Length=0.0135895 bus1=p2udm2892.1.2 bus2=p2ulv9936.1.2 switch=n enabled=y phases=2 Linecode=1P_UG_AL_1/0_Brenau_0_416_0_2_2_2_2

New Line.l(r:p2udm2888-p2udm2892) Units=km Length=0.0383025 bus1=p2udm2888.1.2 bus2=p2udm2892.1.2 switch=n enabled=y phases=2 Linecode=1P_UG_AL_1/0_Brenau_0_416_0_2_2_2_2

New Line.l(r:p2udm2888-p2udt781lv) Units=km Length=0.00957005 bus1=p2udt781lv.1.2 bus2=p2udm2888.1.2 switch=n enabled=y phases=2 Linecode=1P_UG_AL_4/0_Sweetbriar_0_416_0_2_2_2_2

New Line.l(r:p2udm2890-p2ulv4236) Units=km Length=0.0146348 bus1=p2udm2890.1.2 bus2=p2ulv4236.1.2 switch=n enabled=y phases=2 Linecode=1P_UG_AL_1/0_Brenau_0_416_0_2_2_2_2

New Line.l(r:p2udm2890-p2ulv8113) Units=km Length=0.015483100000000001 bus1=p2udm2890.1.2 bus2=p2ulv8113.1.2 switch=n enabled=y phases=2 Linecode=1P_UG_AL_1/0_Brenau_0_416_0_2_2_2_2

New Line.l(r:p2udm2890-p2ulv20973) Units=km Length=0.01502 bus1=p2udm2890.1.2 bus2=p2ulv20973.1.2 switch=n enabled=y phases=2 Linecode=1P_UG_AL_1/0_Brenau_0_416_0_2_2_2_2

New Line.l(r:p2udm2889-p2ulv2552) Units=km Length=0.0318019 bus1=p2udm2889.1.2 bus2=p2ulv2552.1.2 switch=n enabled=y phases=2 Linecode=1P_UG_AL_1/0_Brenau_0_416_0_2_2_2_2

New Line.l(r:p2udm2889-p2udm2890) Units=km Length=0.009578860000000002 bus1=p2udm2890.1.2 bus2=p2udm2889.1.2 switch=n enabled=y phases=2 Linecode=1P_UG_AL_1/0_Brenau_0_416_0_2_2_2_2

New Line.l(r:p2udm2890-p2udt781lv) Units=km Length=0.00957005 bus1=p2udt781lv.1.2 bus2=p2udm2890.1.2 switch=n enabled=y phases=2 Linecode=1P_UG_AL_4/0_Sweetbriar_0_416_0_2_2_2_2

New Line.l(r:p2udt804lv-p2ulv859) Units=km Length=0.012427000000000002 bus1=p2udt804lv.1.2 bus2=p2ulv859.1.2 switch=n enabled=y phases=2 Linecode=1P_UG_AL_1/0_Brenau_0_416_0_2_2_2_2

New Line.l(r:p2udm2991-p2ulv3081) Units=km Length=0.0135159 bus1=p2udm2991.1.2 bus2=p2ulv3081.1.2 switch=n enabled=y phases=2 Linecode=1P_UG_AL_1/0_Brenau_0_416_0_2_2_2_2

New Line.l(r:p2udm2991-p2udt804lv) Units=km Length=0.00970958 bus1=p2udt804lv.1.2 bus2=p2udm2991.1.2 switch=n enabled=y phases=2 Linecode=1P_UG_AL_1/0_Brenau_0_416_0_2_2_2_2

New Line.l(r:p2udm2992-p2ulv5011) Units=km Length=0.013811 bus1=p2udm2992.1.2 bus2=p2ulv5011.1.2 switch=n enabled=y phases=2 Linecode=1P_UG_AL_1/0_Brenau_0_416_0_2_2_2_2

New Line.l(r:p2udm2992-p2ulv20994) Units=km Length=0.0131385 bus1=p2udm2992.1.2 bus2=p2ulv20994.1.2 switch=n enabled=y phases=2 Linecode=1P_UG_AL_1/0_Brenau_0_416_0_2_2_2_2

New Line.l(r:p2udm2993-p2ulv7914) Units=km Length=0.0119948 bus1=p2udm2993.1.2 bus2=p2ulv7914.1.2 switch=n enabled=y phases=2 Linecode=1P_UG_AL_4/0_Sweetbriar_0_416_0_2_2_2_2

New Line.l(r:p2udm2992-p2udm2993) Units=km Length=0.00970958 bus1=p2udm2992.1.2 bus2=p2udm2993.1.2 switch=n enabled=y phases=2 Linecode=1P_UG_AL_4/0_Sweetbriar_0_416_0_2_2_2_2

New Line.l(r:p2udm2992-p2udt804lv) Units=km Length=0.00971838 bus1=p2udt804lv.1.2 bus2=p2udm2992.1.2 switch=n enabled=y phases=2 Linecode=1P_UG_AL_4/0_Sweetbriar_0_416_0_2_2_2_2

New Line.l(r:p2udm2996-p2ulv1826) Units=km Length=0.0127077 bus1=p2udm2996.1.2 bus2=p2ulv1826.1.2 switch=n enabled=y phases=2 Linecode=1P_UG_AL_1/0_Brenau_0_416_0_2_2_2_2

New Line.l(r:p2udm2996-p2udt805lv) Units=km Length=0.058047100000000004 bus1=p2udt805lv.1.2 bus2=p2udm2996.1.2 switch=n enabled=y phases=2 Linecode=1P_UG_AL_1/0_Brenau_0_416_0_2_2_2_2

New Line.l(r:p2udm2997-p2ulv6472) Units=km Length=0.0131763 bus1=p2udm2997.1.2 bus2=p2ulv6472.1.2 switch=n enabled=y phases=2 Linecode=1P_UG_AL_4/0_Sweetbriar_0_416_0_2_2_2_2

New Line.l(r:p2udm2995-p2ulv860) Units=km Length=0.0138594 bus1=p2udm2995.1.2 bus2=p2ulv860.1.2 switch=n enabled=y phases=2 Linecode=1P_UG_AL_1/0_Brenau_0_416_0_2_2_2_2

New Line.l(r:p2udm2998-p2ulv11405) Units=km Length=0.0121126 bus1=p2udm2998.1.2 bus2=p2ulv11405.1.2 switch=n enabled=y phases=2 Linecode=1P_UG_AL_4/0_Sweetbriar_0_416_0_2_2_2_2

New Line.l(r:p2udm2995-p2udm2998) Units=km Length=0.00967236 bus1=p2udm2995.1.2 bus2=p2udm2998.1.2 switch=n enabled=y phases=2 Linecode=1P_UG_AL_4/0_Sweetbriar_0_416_0_2_2_2_2

New Line.l(r:p2udm2995-p2udm2997) Units=km Length=0.00968118 bus1=p2udm2997.1.2 bus2=p2udm2995.1.2 switch=n enabled=y phases=2 Linecode=1P_UG_AL_4/0_Sweetbriar_0_416_0_2_2_2_2

New Line.l(r:p2udm2997-p2udt805lv) Units=km Length=0.00967236 bus1=p2udt805lv.1.2 bus2=p2udm2997.1.2 switch=n enabled=y phases=2 Linecode=1P_UG_AL_4/0_Sweetbriar_0_416_0_2_2_2_2

New Line.l(r:p2udt1016lv-p2ulv1098) Units=km Length=0.012094500000000001 bus1=p2udt1016lv.1.2 bus2=p2ulv1098.1.2 switch=n enabled=y phases=2 Linecode=1P_UG_AL_1/0_Brenau_0_416_0_2_2_2_2

New Line.l(r:p2udt1016lv-p2ulv11622) Units=km Length=0.01218 bus1=p2udt1016lv.1.2 bus2=p2ulv11622.1.2 switch=n enabled=y phases=2 Linecode=1P_UG_AL_1/0_Brenau_0_416_0_2_2_2_2

New Line.l(r:p2udm3756-p2ulv2298) Units=km Length=0.0130274 bus1=p2udm3756.1.2 bus2=p2ulv2298.1.2 switch=n enabled=y phases=2 Linecode=1P_UG_AL_4/0_Sweetbriar_0_416_0_2_2_2_2

New Line.l(r:p2udm3756-p2udt1016lv) Units=km Length=0.00971838 bus1=p2udt1016lv.1.2 bus2=p2udm3756.1.2 switch=n enabled=y phases=2 Linecode=1P_UG_AL_4/0_Sweetbriar_0_416_0_2_2_2_2

New Line.l(r:p2udt1017lv-p2ulv23460) Units=km Length=0.0166515 bus1=p2udt1017lv.1.2 bus2=p2ulv23460.1.2 switch=n enabled=y phases=2 Linecode=1P_UG_AL_4/0_Sweetbriar_0_416_0_2_2_2_2

New Line.l(r:p2udm3758-p2ulv1099) Units=km Length=0.0186253 bus1=p2udm3758.1.2 bus2=p2ulv1099.1.2 switch=n enabled=y phases=2 Linecode=1P_UG_AL_1/0_Brenau_0_416_0_2_2_2_2

New Line.l(r:p2udm3758-p2udt1017lv) Units=km Length=0.00915601 bus1=p2udt1017lv.1.2 bus2=p2udm3758.1.2 switch=n enabled=y phases=2 Linecode=1P_UG_AL_1/0_Brenau_0_416_0_2_2_2_2

New Line.l(r:p2udt1029lv-p2ulv1113) Units=km Length=0.017112 bus1=p2udt1029lv.1.2 bus2=p2ulv1113.1.2 switch=n enabled=y phases=2 Linecode=1P_OH_AL_2/0_Rucina_0_416_0_2_2_2_2

New Line.l(r:p2udm3801-p2ulv1114) Units=km Length=0.0179961 bus1=p2udm3801.1.2 bus2=p2ulv1114.1.2 switch=n enabled=y phases=2 Linecode=1P_UG_AL_1/0_Brenau_0_416_0_2_2_2_2

New Line.l(r:p2udm3801-p2ulv10442) Units=km Length=0.0179452 bus1=p2udm3801.1.2 bus2=p2ulv10442.1.2 switch=n enabled=y phases=2 Linecode=1P_UG_AL_1/0_Brenau_0_416_0_2_2_2_2

New Line.l(r:p2udm3805-p2ulv21688) Units=km Length=0.014856500000000002 bus1=p2udm3805.1.2 bus2=p2ulv21688.1.2 switch=n enabled=y phases=2 Linecode=1P_UG_AL_1/0_Brenau_0_416_0_2_2_2_2

New Line.l(r:p2udm3801-p2udm3805) Units=km Length=0.00968275 bus1=p2udm3801.1.2 bus2=p2udm3805.1.2 switch=n enabled=y phases=2 Linecode=1P_UG_AL_1/0_Brenau_0_416_0_2_2_2_2

New Line.l(r:p2udm3801-p2udt1030lv) Units=km Length=0.00967789 bus1=p2udt1030lv.1.2 bus2=p2udm3801.1.2 switch=n enabled=y phases=2 Linecode=1P_UG_AL_4/0_Sweetbriar_0_416_0_2_2_2_2

New Line.l(r:p2udm3804-p2ulv21218) Units=km Length=0.0134393 bus1=p2udm3804.1.2 bus2=p2ulv21218.1.2 switch=n enabled=y phases=2 Linecode=1P_UG_AL_1/0_Brenau_0_416_0_2_2_2_2

New Line.l(r:p2udm3804-p2ulv21689) Units=km Length=0.0227452 bus1=p2udm3804.1.2 bus2=p2ulv21689.1.2 switch=n enabled=y phases=2 Linecode=1P_UG_AL_1/0_Brenau_0_416_0_2_2_2_2

New Line.l(r:p2udm3802-p2ulv9044) Units=km Length=0.015826 bus1=p2udm3802.1.2 bus2=p2ulv9044.1.2 switch=n enabled=y phases=2 Linecode=1P_UG_AL_1/0_Brenau_0_416_0_2_2_2_2

New Line.l(r:p2udm3802-p2udm3804) Units=km Length=0.06052300000000001 bus1=p2udm3804.1.2 bus2=p2udm3802.1.2 switch=n enabled=y phases=2 Linecode=1P_UG_AL_1/0_Brenau_0_416_0_2_2_2_2

New Line.l(r:p2udm3804-p2udt1030lv) Units=km Length=0.00968275 bus1=p2udt1030lv.1.2 bus2=p2udm3804.1.2 switch=n enabled=y phases=2 Linecode=1P_UG_AL_4/0_Sweetbriar_0_416_0_2_2_2_2

New Line.l(r:p2udt1031lv-p2ulv1115) Units=km Length=0.0120897 bus1=p2udt1031lv.1.2 bus2=p2ulv1115.1.2 switch=n enabled=y phases=2 Linecode=1P_UG_AL_1/0_Brenau_0_416_0_2_2_2_2

New Line.l(r:p2udm3808-p2ulv5009) Units=km Length=0.0126143 bus1=p2udm3808.1.2 bus2=p2ulv5009.1.2 switch=n enabled=y phases=2 Linecode=1P_UG_AL_1/0_Brenau_0_416_0_2_2_2_2

New Line.l(r:p2udm3809-p2ulv5480) Units=km Length=0.0138792 bus1=p2udm3809.1.2 bus2=p2ulv5480.1.2 switch=n enabled=y phases=2 Linecode=1P_UG_AL_1/0_Brenau_0_416_0_2_2_2_2

New Line.l(r:p2udm3809-p2ulv9961) Units=km Length=0.0124885 bus1=p2udm3809.1.2 bus2=p2ulv9961.1.2 switch=n enabled=y phases=2 Linecode=1P_UG_AL_1/0_Brenau_0_416_0_2_2_2_2

New Line.l(r:p2udm3808-p2udm3809) Units=km Length=0.00966765 bus1=p2udm3808.1.2 bus2=p2udm3809.1.2 switch=n enabled=y phases=2 Linecode=1P_UG_AL_4/0_Sweetbriar_0_416_0_2_2_2_2

New Line.l(r:p2udm3808-p2udt1031lv) Units=km Length=0.00967236 bus1=p2udt1031lv.1.2 bus2=p2udm3808.1.2 switch=n enabled=y phases=2 Linecode=1P_UG_AL_4/0_Sweetbriar_0_416_0_2_2_2_2

New Line.l(r:p2udm3811-p2ulv9046) Units=km Length=0.0121337 bus1=p2udm3811.1.2 bus2=p2ulv9046.1.2 switch=n enabled=y phases=2 Linecode=1P_UG_AL_1/0_Brenau_0_416_0_2_2_2_2

New Line.l(r:p2udm3810-p2ulv7417) Units=km Length=0.012993900000000001 bus1=p2udm3810.1.2 bus2=p2ulv7417.1.2 switch=n enabled=y phases=2 Linecode=1P_UG_AL_1/0_Brenau_0_416_0_2_2_2_2

New Line.l(r:p2udm3810-p2udm3811) Units=km Length=0.00968118 bus1=p2udm3811.1.2 bus2=p2udm3810.1.2 switch=n enabled=y phases=2 Linecode=1P_UG_AL_1/0_Brenau_0_416_0_2_2_2_2

New Line.l(r:p2udm3811-p2udt1031lv) Units=km Length=0.00967236 bus1=p2udt1031lv.1.2 bus2=p2udm3811.1.2 switch=n enabled=y phases=2 Linecode=1P_UG_AL_4/0_Sweetbriar_0_416_0_2_2_2_2

New Line.l(r:p2udt1216lv-p2ulv3993) Units=km Length=0.0255967 bus1=p2udt1216lv.1.2 bus2=p2ulv3993.1.2 switch=n enabled=y phases=2 Linecode=1P_OH_AL_2/0_Rucina_0_416_0_2_2_2_2

New Line.l(r:p2udt1216lv-p2ulv12808) Units=km Length=0.0236791 bus1=p2udt1216lv.1.2 bus2=p2ulv12808.1.2 switch=n enabled=y phases=2 Linecode=1P_OH_AL_2/0_Rucina_0_416_0_2_2_2_2

New Line.l(r:p2udt1216lv-p2ulv13755) Units=km Length=0.0294078 bus1=p2udt1216lv.1.2 bus2=p2ulv13755.1.2 switch=n enabled=y phases=2 Linecode=1P_OH_AL_4/0_Zuzara_0_416_0_2_2_2_2

New Line.l(r:p2udm4500-p2ulv1336) Units=km Length=0.0215698 bus1=p2udm4500.1.2 bus2=p2ulv1336.1.2 switch=n enabled=y phases=2 Linecode=1P_UG_AL_1/0_Brenau_0_416_0_2_2_2_2

New Line.l(r:p2udm4500-p2udt1216lv) Units=km Length=0.00658392 bus1=p2udt1216lv.1.2 bus2=p2udm4500.1.2 switch=n enabled=y phases=2 Linecode=1P_OH_AL_2/0_Rucina_0_416_0_2_2_2_2

New Line.l(r:p2udt1235lv-p2ulv1358) Units=km Length=0.02384 bus1=p2udt1235lv.1.2 bus2=p2ulv1358.1.2 switch=n enabled=y phases=2 Linecode=1P_UG_AL_1/0_Brenau_0_416_0_2_2_2_2

New Line.l(r:p2udt1235lv-p2ulv6471) Units=km Length=0.0229507 bus1=p2udt1235lv.1.2 bus2=p2ulv6471.1.2 switch=n enabled=y phases=2 Linecode=1P_UG_AL_1/0_Brenau_0_416_0_2_2_2_2

New Line.l(r:p2udt1235lv-p2ulv8594) Units=km Length=0.0219149 bus1=p2udt1235lv.1.2 bus2=p2ulv8594.1.2 switch=n enabled=y phases=2 Linecode=1P_UG_AL_4/0_Sweetbriar_0_416_0_2_2_2_2

New Line.l(r:p2udm4569-p2ulv19218) Units=km Length=0.0238332 bus1=p2udm4569.1.2 bus2=p2ulv19218.1.2 switch=n enabled=y phases=2 Linecode=1P_UG_AL_4/0_Sweetbriar_0_416_0_2_2_2_2

New Line.l(r:p2udm4569-p2udt1235lv) Units=km Length=0.00962407 bus1=p2udt1235lv.1.2 bus2=p2udm4569.1.2 switch=n enabled=y phases=2 Linecode=1P_UG_AL_4/0_Sweetbriar_0_416_0_2_2_2_2

New Line.l(r:p2udm5279-p2ulv1590) Units=km Length=0.0154977 bus1=p2udm5279.1.2 bus2=p2ulv1590.1.2 switch=n enabled=y phases=2 Linecode=1P_UG_AL_1/0_Brenau_0_416_0_2_2_2_2

New Line.l(r:p2udm5279-p2udt1437lv) Units=km Length=0.00986052 bus1=p2udt1437lv.1.2 bus2=p2udm5279.1.2 switch=n enabled=y phases=2 Linecode=1P_UG_AL_1/0_Brenau_0_416_0_2_2_2_2

New Line.l(r:p2udm5280-p2ulv5217) Units=km Length=0.0155886 bus1=p2udm5280.1.2 bus2=p2ulv5217.1.2 switch=n enabled=y phases=2 Linecode=1P_UG_AL_1/0_Brenau_0_416_0_2_2_2_2

New Line.l(r:p2udm5280-p2udt1437lv) Units=km Length=0.00984693 bus1=p2udt1437lv.1.2 bus2=p2udm5280.1.2 switch=n enabled=y phases=2 Linecode=1P_UG_AL_1/0_Brenau_0_416_0_2_2_2_2

New Line.l(r:p2udt1632lv-p2ulv12804) Units=km Length=0.0125811 bus1=p2udt1632lv.1.2 bus2=p2ulv12804.1.2 switch=n enabled=y phases=2 Linecode=1P_UG_AL_1/0_Brenau_0_416_0_2_2_2_2

New Line.l(r:p2udt1632lv-p2ulv21442) Units=km Length=0.0127629 bus1=p2udt1632lv.1.2 bus2=p2ulv21442.1.2 switch=n enabled=y phases=2 Linecode=1P_UG_AL_1/0_Brenau_0_416_0_2_2_2_2

New Line.l(r:p2udm5953-p2ulv3285) Units=km Length=0.0118712 bus1=p2udm5953.1.2 bus2=p2ulv3285.1.2 switch=n enabled=y phases=2 Linecode=1P_UG_AL_1/0_Brenau_0_416_0_2_2_2_2

New Line.l(r:p2udm5952-p2ulv1825) Units=km Length=0.0128559 bus1=p2udm5952.1.2 bus2=p2ulv1825.1.2 switch=n enabled=y phases=2 Linecode=1P_UG_AL_1/0_Brenau_0_416_0_2_2_2_2

New Line.l(r:p2udm5952-p2udm5953) Units=km Length=0.00968118 bus1=p2udm5953.1.2 bus2=p2udm5952.1.2 switch=n enabled=y phases=2 Linecode=1P_UG_AL_1/0_Brenau_0_416_0_2_2_2_2

New Line.l(r:p2udm5953-p2udt1632lv) Units=km Length=0.00967236 bus1=p2udt1632lv.1.2 bus2=p2udm5953.1.2 switch=n enabled=y phases=2 Linecode=1P_UG_AL_4/0_Sweetbriar_0_416_0_2_2_2_2

New Line.l(r:p2udm5954-p2ulv5216) Units=km Length=0.0130987 bus1=p2udm5954.1.2 bus2=p2ulv5216.1.2 switch=n enabled=y phases=2 Linecode=1P_UG_AL_1/0_Brenau_0_416_0_2_2_2_2

New Line.l(r:p2udm5954-p2ulv18505) Units=km Length=0.0128909 bus1=p2udm5954.1.2 bus2=p2ulv18505.1.2 switch=n enabled=y phases=2 Linecode=1P_UG_AL_1/0_Brenau_0_416_0_2_2_2_2

New Line.l(r:p2udm5954-p2udt1632lv) Units=km Length=0.00967236 bus1=p2udt1632lv.1.2 bus2=p2udm5954.1.2 switch=n enabled=y phases=2 Linecode=1P_UG_AL_4/0_Sweetbriar_0_416_0_2_2_2_2

New Line.l(r:p2udt1633lv-p2ulv1827) Units=km Length=0.017725400000000002 bus1=p2udt1633lv.1.2 bus2=p2ulv1827.1.2 switch=n enabled=y phases=2 Linecode=1P_UG_AL_1/0_Brenau_0_416_0_2_2_2_2

New Line.l(r:p2udt1633lv-p2ulv3502) Units=km Length=0.0280796 bus1=p2udt1633lv.1.2 bus2=p2ulv3502.1.2 switch=n enabled=y phases=2 Linecode=1P_UG_AL_1/0_Brenau_0_416_0_2_2_2_2

New Line.l(r:p2udt1633lv-p2ulv13047) Units=km Length=0.0258384 bus1=p2udt1633lv.1.2 bus2=p2ulv13047.1.2 switch=n enabled=y phases=2 Linecode=1P_UG_AL_1/0_Brenau_0_416_0_2_2_2_2

New Line.l(r:p2udt1633lv-p2ulv20971) Units=km Length=0.0189171 bus1=p2udt1633lv.1.2 bus2=p2ulv20971.1.2 switch=n enabled=y phases=2 Linecode=1P_UG_AL_1/0_Brenau_0_416_0_2_2_2_2

New Line.l(r:p2udt1635lv-p2ulv3998) Units=km Length=0.0117435 bus1=p2udt1635lv.1.2 bus2=p2ulv3998.1.2 switch=n enabled=y phases=2 Linecode=1P_UG_AL_1/0_Brenau_0_416_0_2_2_2_2

New Line.l(r:p2udm5964-p2ulv1829) Units=km Length=0.0150231 bus1=p2udm5964.1.2 bus2=p2ulv1829.1.2 switch=n enabled=y phases=2 Linecode=1P_UG_AL_4/0_Sweetbriar_0_416_0_2_2_2_2

New Line.l(r:p2udm5968-p2ulv15996) Units=km Length=0.014715 bus1=p2udm5968.1.2 bus2=p2ulv15996.1.2 switch=n enabled=y phases=2 Linecode=1P_UG_AL_1/0_Brenau_0_416_0_2_2_2_2

New Line.l(r:p2udm5964-p2udm5968) Units=km Length=0.00951135 bus1=p2udm5964.1.2 bus2=p2udm5968.1.2 switch=n enabled=y phases=2 Linecode=1P_UG_AL_1/0_Brenau_0_416_0_2_2_2_2

New Line.l(r:p2udm5964-p2udt1635lv) Units=km Length=0.00951677 bus1=p2udt1635lv.1.2 bus2=p2udm5964.1.2 switch=n enabled=y phases=2 Linecode=1P_UG_AL_4/0_Sweetbriar_0_416_0_2_2_2_2

New Line.l(r:p2udm5966-p2ulv9260) Units=km Length=0.0149711 bus1=p2udm5966.1.2 bus2=p2ulv9260.1.2 switch=n enabled=y phases=2 Linecode=1P_UG_AL_1/0_Brenau_0_416_0_2_2_2_2

New Line.l(r:p2udm5967-p2ulv12571) Units=km Length=0.0139223 bus1=p2udm5967.1.2 bus2=p2ulv12571.1.2 switch=n enabled=y phases=2 Linecode=1P_UG_AL_1/0_Brenau_0_416_0_2_2_2_2

New Line.l(r:p2udm5966-p2udm5967) Units=km Length=0.039338000000000005 bus1=p2udm5966.1.2 bus2=p2udm5967.1.2 switch=n enabled=y phases=2 Linecode=1P_UG_AL_1/0_Brenau_0_416_0_2_2_2_2

New Line.l(r:p2udm5966-p2udt1635lv) Units=km Length=0.00951135 bus1=p2udt1635lv.1.2 bus2=p2udm5966.1.2 switch=n enabled=y phases=2 Linecode=1P_UG_AL_4/0_Sweetbriar_0_416_0_2_2_2_2

New Line.l(r:p2udt1636lv-p2ulv21673) Units=km Length=0.0268891 bus1=p2udt1636lv.1.2 bus2=p2ulv21673.1.2 switch=n enabled=y phases=2 Linecode=1P_UG_AL_1/0_Brenau_0_416_0_2_2_2_2

New Line.l(r:p2udm5969-p2ulv1830) Units=km Length=0.016768700000000004 bus1=p2udm5969.1.2 bus2=p2ulv1830.1.2 switch=n enabled=y phases=2 Linecode=1P_UG_AL_1/0_Brenau_0_416_0_2_2_2_2

New Line.l(r:p2udm5969-p2ulv23682) Units=km Length=0.0259837 bus1=p2udm5969.1.2 bus2=p2ulv23682.1.2 switch=n enabled=y phases=2 Linecode=1P_UG_AL_1/0_Brenau_0_416_0_2_2_2_2

New Line.l(r:p2udm5969-p2udt1636lv) Units=km Length=0.008787680000000003 bus1=p2udt1636lv.1.2 bus2=p2udm5969.1.2 switch=n enabled=y phases=2 Linecode=1P_UG_AL_4/0_Sweetbriar_0_416_0_2_2_2_2

New Line.l(r:p2udm5970-p2ulv2818) Units=km Length=0.0199041 bus1=p2udm5970.1.2 bus2=p2ulv2818.1.2 switch=n enabled=y phases=2 Linecode=1P_UG_AL_4/0_Sweetbriar_0_416_0_2_2_2_2

New Line.l(r:p2udm5970-p2ulv18945) Units=km Length=0.0216263 bus1=p2udm5970.1.2 bus2=p2ulv18945.1.2 switch=n enabled=y phases=2 Linecode=1P_UG_AL_1/0_Brenau_0_416_0_2_2_2_2

New Line.l(r:p2udm5970-p2udt1636lv) Units=km Length=0.00572043 bus1=p2udt1636lv.1.2 bus2=p2udm5970.1.2 switch=n enabled=y phases=2 Linecode=1P_UG_AL_4/0_Sweetbriar_0_416_0_2_2_2_2

New Line.l(r:p2udt1651lv-p2ulv1847) Units=km Length=0.0159148 bus1=p2udt1651lv.1.2 bus2=p2ulv1847.1.2 switch=n enabled=y phases=2 Linecode=1P_UG_AL_4/0_Sweetbriar_0_416_0_2_2_2_2

New Line.l(r:p2udt1652lv-p2ulv1848) Units=km Length=0.0333086 bus1=p2udt1652lv.1.2 bus2=p2ulv1848.1.2 switch=n enabled=y phases=2 Linecode=1P_UG_AL_1/0_Brenau_0_416_0_2_2_2_2

New Line.l(r:p2udt1652lv-p2ulv4260) Units=km Length=0.0178715 bus1=p2udt1652lv.1.2 bus2=p2ulv4260.1.2 switch=n enabled=y phases=2 Linecode=1P_UG_AL_1/0_Brenau_0_416_0_2_2_2_2

New Line.l(r:p2udm6024-p2ulv4259) Units=km Length=0.0166381 bus1=p2udm6024.1.2 bus2=p2ulv4259.1.2 switch=n enabled=y phases=2 Linecode=1P_UG_AL_1/0_Brenau_0_416_0_2_2_2_2

New Line.l(r:p2udm6024-p2udt1652lv) Units=km Length=0.00928653 bus1=p2udt1652lv.1.2 bus2=p2udm6024.1.2 switch=n enabled=y phases=2 Linecode=1P_UG_AL_1/0_Brenau_0_416_0_2_2_2_2

New Line.l(r:p2udm6026-p2ulv21921) Units=km Length=0.014668 bus1=p2udm6026.1.2 bus2=p2ulv21921.1.2 switch=n enabled=y phases=2 Linecode=1P_UG_AL_1/0_Brenau_0_416_0_2_2_2_2

New Line.l(r:p2udm6027-p2ulv24160) Units=km Length=0.0151896 bus1=p2udm6027.1.2 bus2=p2ulv24160.1.2 switch=n enabled=y phases=2 Linecode=1P_UG_AL_1/0_Brenau_0_416_0_2_2_2_2

New Line.l(r:p2udm6026-p2udm6027) Units=km Length=0.00927769 bus1=p2udm6026.1.2 bus2=p2udm6027.1.2 switch=n enabled=y phases=2 Linecode=1P_UG_AL_1/0_Brenau_0_416_0_2_2_2_2

New Line.l(r:p2udm6026-p2udt1652lv) Units=km Length=0.00927769 bus1=p2udt1652lv.1.2 bus2=p2udm6026.1.2 switch=n enabled=y phases=2 Linecode=1P_UG_AL_2/0_Converse_0_416_0_2_2_2_2

New Line.l(r:p2udt1653lv-p2ulv1849) Units=km Length=0.0181313 bus1=p2udt1653lv.1.2 bus2=p2ulv1849.1.2 switch=n enabled=y phases=2 Linecode=1P_OH_AL_2/0_Rucina_0_416_0_2_2_2_2

New Line.l(r:p2udt1653lv-p2ulv21217) Units=km Length=0.0327667 bus1=p2udt1653lv.1.2 bus2=p2ulv21217.1.2 switch=n enabled=y phases=2 Linecode=1P_OH_AL_4/0_Zuzara_0_416_0_2_2_2_2

New Line.l(r:p2udt1654lv-p2ulv1850) Units=km Length=0.0189818 bus1=p2udt1654lv.1.2 bus2=p2ulv1850.1.2 switch=n enabled=y phases=2 Linecode=1P_UG_AL_4/0_Sweetbriar_0_416_0_2_2_2_2

New Line.l(r:p2udt1822lv-p2ulv2323) Units=km Length=0.0133797 bus1=p2udt1822lv.1.2 bus2=p2ulv2323.1.2 switch=n enabled=y phases=2 Linecode=1P_UG_AL_1/0_Brenau_0_416_0_2_2_2_2

New Line.l(r:p2udm6634-p2ulv2324) Units=km Length=0.013307400000000002 bus1=p2udm6634.1.2 bus2=p2ulv2324.1.2 switch=n enabled=y phases=2 Linecode=1P_UG_AL_1/0_Brenau_0_416_0_2_2_2_2
