New Linecode.3P_OH_AL_ACSR_4/0_Penguin_12_47_0_3_3_3_3 units=km nphases=3 Faultrate=0.1 Rmatrix=(0.3635667 0.09006667 0.09006667 | 0.09006667 0.3635667 0.09006667 | 0.09006667 0.09006667 0.3635667 ) Xmatrix=(0.6385333 0.2202333 0.2202333 | 0.2202333 0.6385333 0.2202333 | 0.2202333 0.2202333 0.6385333 ) Cmatrix=(7.448267 -3.1846329999999994 -3.1846329999999994 | -3.1846329999999994 7.448267 -3.1846329999999994 | -3.1846329999999994 -3.1846329999999994 7.448267 ) normamps=325.0

New Linecode.3P_UG_AL_4/0_15_0_416_0_3_3_3_3 units=km nphases=3 Faultrate=0.1 Rmatrix=(0.445 0.1745 0.1745 | 0.1745 0.445 0.1745 | 0.1745 0.1745 0.445 ) Xmatrix=(0.5326 0.2912 0.2912 | 0.2912 0.5326 0.2912 | 0.2912 0.2912 0.5326 ) Cmatrix=(145.291 -72.088 -72.088 | -72.088 145.291 -72.088 | -72.088 -72.088 145.291 ) normamps=285.0

New Linecode.3P_OH_AL_ACSR_1033kcmil_Curlew_12.47_1_3_3_3_3 units=km nphases=3 Faultrate=0.1 Rmatrix=(0.0871 0.0296 0.0296 | 0.0296 0.0871 0.0296 | 0.0296 0.0296 0.0871 ) Xmatrix=(0.5382333 0.1839333 0.1839333 | 0.1839333 0.5382333 0.1839333 | 0.1839333 0.1839333 0.5382333 ) Cmatrix=(8.6745 -3.8842 -3.8842 | -3.8842 8.6745 -3.8842 | -3.8842 -3.8842 8.6745 ) normamps=960.0

New Linecode.elbswitch_3_3_3_3 units=km nphases=3 Faultrate=0.1 Rmatrix=(0.001 0.0 0.0 | 0.0 0.001 0.0 | 0.0 0.0 0.001 ) Xmatrix=(0.001 0.0 0.0 | 0.0 0.001 0.0 | 0.0 0.0 0.001 ) Cmatrix=(3.499563 -0.1093613 -0.1093613 | -0.1093613 3.499563 -0.1093613 | -0.1093613 -0.1093613 3.499563 ) normamps=115.0

