New Line.l(r:p3udm1736-p3ulv21774) Units=km Length=0.0226683 bus1=p3udm1736.1.2 bus2=p3ulv21774.1.2 switch=n enabled=y phases=2 Linecode=1P_UG_AL_1/0_Brenau_0_416_0_2_2_2_2

New Line.l(r:p3udm1736-p3udt520lv) Units=km Length=0.019168900000000003 bus1=p3udt520lv.1.2 bus2=p3udm1736.1.2 switch=n enabled=y phases=2 Linecode=1P_UG_AL_1/0_Brenau_0_416_0_2_2_2_2

New Line.l(r:p3udm1737-p3ulv55170) Units=km Length=0.011707100000000002 bus1=p3udm1737.1.2 bus2=p3ulv55170.1.2 switch=n enabled=y phases=2 Linecode=1P_UG_AL_2/0_Converse_0_416_0_2_2_2_2

New Line.l(r:p3udm1735-p3ulv668) Units=km Length=0.0199989 bus1=p3udm1735.1.2 bus2=p3ulv668.1.2 switch=n enabled=y phases=2 Linecode=1P_UG_AL_1/0_Brenau_0_416_0_2_2_2_2

New Line.l(r:p3udm1735-p3udm1737) Units=km Length=0.00940851 bus1=p3udm1737.1.2 bus2=p3udm1735.1.2 switch=n enabled=y phases=2 Linecode=1P_UG_AL_1/0_Brenau_0_416_0_2_2_2_2

New Line.l(r:p3udm1737-p3udt520lv) Units=km Length=0.00941416 bus1=p3udt520lv.1.2 bus2=p3udm1737.1.2 switch=n enabled=y phases=2 Linecode=1P_UG_AL_4/0_Sweetbriar_0_416_0_2_2_2_2

New Line.l(r:p3udt521lv-p3ulv669) Units=km Length=0.0164895 bus1=p3udt521lv.1.2 bus2=p3ulv669.1.2 switch=n enabled=y phases=2 Linecode=1P_OH_AL_2/0_Rucina_0_416_0_2_2_2_2

New Line.l(r:p3udm1750-p3ulv673) Units=km Length=0.0186291 bus1=p3udm1750.1.2 bus2=p3ulv673.1.2 switch=n enabled=y phases=2 Linecode=1P_UG_AL_1/0_Brenau_0_416_0_2_2_2_2

New Line.l(r:p3udm1750-p3ulv14819) Units=km Length=0.0210802 bus1=p3udm1750.1.2 bus2=p3ulv14819.1.2 switch=n enabled=y phases=2 Linecode=1P_UG_AL_1/0_Brenau_0_416_0_2_2_2_2

New Line.l(r:p3udm1750-p3udt525lv) Units=km Length=0.00974048 bus1=p3udt525lv.1.2 bus2=p3udm1750.1.2 switch=n enabled=y phases=2 Linecode=1P_UG_AL_4/0_Sweetbriar_0_416_0_2_2_2_2

New Line.l(r:p3udm1752-p3ulv25007) Units=km Length=0.019472900000000005 bus1=p3udm1752.1.2 bus2=p3ulv25007.1.2 switch=n enabled=y phases=2 Linecode=1P_UG_AL_2/0_Converse_0_416_0_2_2_2_2

New Line.l(r:p3udm1753-p3ulv36631) Units=km Length=0.0215935 bus1=p3udm1753.1.2 bus2=p3ulv36631.1.2 switch=n enabled=y phases=2 Linecode=1P_UG_AL_1/0_Brenau_0_416_0_2_2_2_2

New Line.l(r:p3udm1752-p3udm1753) Units=km Length=0.00974048 bus1=p3udm1752.1.2 bus2=p3udm1753.1.2 switch=n enabled=y phases=2 Linecode=1P_UG_AL_1/0_Brenau_0_416_0_2_2_2_2

New Line.l(r:p3udm1752-p3udt525lv) Units=km Length=0.00974048 bus1=p3udt525lv.1.2 bus2=p3udm1752.1.2 switch=n enabled=y phases=2 Linecode=1P_UG_AL_4/0_Sweetbriar_0_416_0_2_2_2_2

New Line.l(r:p3udt526lv-p3ulv10115) Units=km Length=0.014374900000000001 bus1=p3udt526lv.1.2 bus2=p3ulv10115.1.2 switch=n enabled=y phases=2 Linecode=1P_UG_AL_1/0_Brenau_0_416_0_2_2_2_2

New Line.l(r:p3udm1754-p3ulv674) Units=km Length=0.0151612 bus1=p3udm1754.1.2 bus2=p3ulv674.1.2 switch=n enabled=y phases=2 Linecode=1P_UG_AL_1/0_Brenau_0_416_0_2_2_2_2

New Line.l(r:p3udm1754-p3ulv40462) Units=km Length=0.0156346 bus1=p3udm1754.1.2 bus2=p3ulv40462.1.2 switch=n enabled=y phases=2 Linecode=1P_UG_AL_1/0_Brenau_0_416_0_2_2_2_2

New Line.l(r:p3udm1754-p3udt526lv) Units=km Length=0.0169999 bus1=p3udt526lv.1.2 bus2=p3udm1754.1.2 switch=n enabled=y phases=2 Linecode=1P_UG_AL_4/0_Sweetbriar_0_416_0_2_2_2_2

New Line.l(r:p3udm1756-p3ulv16426) Units=km Length=0.0169236 bus1=p3udm1756.1.2 bus2=p3ulv16426.1.2 switch=n enabled=y phases=2 Linecode=1P_UG_AL_1/0_Brenau_0_416_0_2_2_2_2

New Line.l(r:p3udm1756-p3ulv50554) Units=km Length=0.0158154 bus1=p3udm1756.1.2 bus2=p3ulv50554.1.2 switch=n enabled=y phases=2 Linecode=1P_UG_AL_1/0_Brenau_0_416_0_2_2_2_2

New Line.l(r:p3udm1756-p3udt526lv) Units=km Length=0.00864047 bus1=p3udt526lv.1.2 bus2=p3udm1756.1.2 switch=n enabled=y phases=2 Linecode=1P_UG_AL_4/0_Sweetbriar_0_416_0_2_2_2_2

New Line.l(r:p3udt528lv-p3ulv676) Units=km Length=0.027866000000000002 bus1=p3udt528lv.1.2 bus2=p3ulv676.1.2 switch=n enabled=y phases=2 Linecode=1P_UG_AL_1/0_Brenau_0_416_0_2_2_2_2

New Line.l(r:p3udt528lv-p3ulv6200) Units=km Length=0.0289637 bus1=p3udt528lv.1.2 bus2=p3ulv6200.1.2 switch=n enabled=y phases=2 Linecode=1P_UG_AL_1/0_Brenau_0_416_0_2_2_2_2

New Line.l(r:p3udt528lv-p3ulv42815) Units=km Length=0.0296792 bus1=p3udt528lv.1.2 bus2=p3ulv42815.1.2 switch=n enabled=y phases=2 Linecode=1P_UG_AL_1/0_Brenau_0_416_0_2_2_2_2

New Line.l(r:p3udt528lv-p3ulv68178) Units=km Length=0.028213600000000002 bus1=p3udt528lv.1.2 bus2=p3ulv68178.1.2 switch=n enabled=y phases=2 Linecode=1P_UG_AL_1/0_Brenau_0_416_0_2_2_2_2

New Line.l(r:p3udt530lv-p3ulv18721) Units=km Length=0.0190635 bus1=p3udt530lv.1.2 bus2=p3ulv18721.1.2 switch=n enabled=y phases=2 Linecode=1P_UG_AL_4/0_Sweetbriar_0_416_0_2_2_2_2

New Line.l(r:p3udm1772-p3ulv48280) Units=km Length=0.0143117 bus1=p3udm1772.1.2 bus2=p3ulv48280.1.2 switch=n enabled=y phases=2 Linecode=1P_UG_AL_1/0_Brenau_0_416_0_2_2_2_2

New Line.l(r:p3udm1769-p3ulv678) Units=km Length=0.0174587 bus1=p3udm1769.1.2 bus2=p3ulv678.1.2 switch=n enabled=y phases=2 Linecode=1P_UG_AL_1/0_Brenau_0_416_0_2_2_2_2

New Line.l(r:p3udm1769-p3udm1772) Units=km Length=0.0182791 bus1=p3udm1772.1.2 bus2=p3udm1769.1.2 switch=n enabled=y phases=2 Linecode=1P_UG_AL_1/0_Brenau_0_416_0_2_2_2_2

New Line.l(r:p3udm1772-p3udt530lv) Units=km Length=0.00913977 bus1=p3udt530lv.1.2 bus2=p3udm1772.1.2 switch=n enabled=y phases=2 Linecode=1P_UG_AL_4/0_Sweetbriar_0_416_0_2_2_2_2

New Line.l(r:p3udm1773-p3ulv72791) Units=km Length=0.0118928 bus1=p3udm1773.1.2 bus2=p3ulv72791.1.2 switch=n enabled=y phases=2 Linecode=1P_UG_AL_1/0_Brenau_0_416_0_2_2_2_2

New Line.l(r:p3udm1771-p3ulv40468) Units=km Length=0.0259966 bus1=p3udm1771.1.2 bus2=p3ulv40468.1.2 switch=n enabled=y phases=2 Linecode=1P_UG_AL_1/0_Brenau_0_416_0_2_2_2_2

New Line.l(r:p3udm1771-p3udm1773) Units=km Length=0.0313473 bus1=p3udm1773.1.2 bus2=p3udm1771.1.2 switch=n enabled=y phases=2 Linecode=1P_UG_AL_1/0_Brenau_0_416_0_2_2_2_2

New Line.l(r:p3udm1773-p3udt530lv) Units=km Length=0.0091325 bus1=p3udt530lv.1.2 bus2=p3udm1773.1.2 switch=n enabled=y phases=2 Linecode=1P_UG_AL_4/0_Sweetbriar_0_416_0_2_2_2_2

New Line.l(r:p3udm1774-p3ulv679) Units=km Length=0.0202325 bus1=p3udm1774.1.2 bus2=p3ulv679.1.2 switch=n enabled=y phases=2 Linecode=1P_UG_AL_1/0_Brenau_0_416_0_2_2_2_2

New Line.l(r:p3udm1774-p3ulv25009) Units=km Length=0.0128538 bus1=p3udm1774.1.2 bus2=p3ulv25009.1.2 switch=n enabled=y phases=2 Linecode=1P_UG_AL_1/0_Brenau_0_416_0_2_2_2_2

New Line.l(r:p3udm1774-p3udt531lv) Units=km Length=0.00914632 bus1=p3udt531lv.1.2 bus2=p3udm1774.1.2 switch=n enabled=y phases=2 Linecode=1P_UG_AL_4/0_Sweetbriar_0_416_0_2_2_2_2

New Line.l(r:p3udm1776-p3ulv52081) Units=km Length=0.015811 bus1=p3udm1776.1.2 bus2=p3ulv52081.1.2 switch=n enabled=y phases=2 Linecode=1P_UG_AL_1/0_Brenau_0_416_0_2_2_2_2

New Line.l(r:p3udm1776-p3udt531lv) Units=km Length=0.00913633 bus1=p3udt531lv.1.2 bus2=p3udm1776.1.2 switch=n enabled=y phases=2 Linecode=1P_UG_AL_1/0_Brenau_0_416_0_2_2_2_2

New Line.l(r:p3udm2867-p3ulv984) Units=km Length=0.00587748 bus1=p3udm2867.1.2 bus2=p3ulv984.1.2 switch=n enabled=y phases=2 Linecode=1P_OH_AL_2/0_Rucina_0_416_0_2_2_2_2

New Line.l(r:p3udm2867-p3ulv32355) Units=km Length=0.020452300000000003 bus1=p3udm2867.1.2 bus2=p3ulv32355.1.2 switch=n enabled=y phases=2 Linecode=1P_OH_AL_2/0_Rucina_0_416_0_2_2_2_2

New Line.l(r:p3udm2867-p3udt826lv) Units=km Length=0.0173632 bus1=p3udt826lv.1.2 bus2=p3udm2867.1.2 switch=n enabled=y phases=2 Linecode=1P_OH_AL_2/0_Rucina_0_416_0_2_2_2_2

New Line.l(r:p3udm2869-p3ulv76931) Units=km Length=0.0234204 bus1=p3udm2869.1.2 bus2=p3ulv76931.1.2 switch=n enabled=y phases=2 Linecode=1P_OH_AL_2/0_Rucina_0_416_0_2_2_2_2

New Line.l(r:p3udm2869-p3udt826lv) Units=km Length=0.0191013 bus1=p3udt826lv.1.2 bus2=p3udm2869.1.2 switch=n enabled=y phases=2 Linecode=1P_OH_AL_2/0_Rucina_0_416_0_2_2_2_2

New Line.l(r:p3udt827lv-p3ulv985) Units=km Length=0.0168394 bus1=p3udt827lv.1.2 bus2=p3ulv985.1.2 switch=n enabled=y phases=2 Linecode=1P_OH_AL_2/0_Rucina_0_416_0_2_2_2_2

New Line.l(r:p3udt827lv-p3ulv62340) Units=km Length=0.0122093 bus1=p3udt827lv.1.2 bus2=p3ulv62340.1.2 switch=n enabled=y phases=2 Linecode=1P_OH_AL_2/0_Rucina_0_416_0_2_2_2_2

New Line.l(r:p3udm2871-p3ulv2562) Units=km Length=0.0131295 bus1=p3udm2871.1.2 bus2=p3ulv2562.1.2 switch=n enabled=y phases=2 Linecode=1P_OH_AL_2/0_Rucina_0_416_0_2_2_2_2

New Line.l(r:p3udm2871-p3ulv24541) Units=km Length=0.0152711 bus1=p3udm2871.1.2 bus2=p3ulv24541.1.2 switch=n enabled=y phases=2 Linecode=1P_OH_AL_2/0_Rucina_0_416_0_2_2_2_2

New Line.l(r:p3udm2871-p3udt827lv) Units=km Length=0.0183299 bus1=p3udt827lv.1.2 bus2=p3udm2871.1.2 switch=n enabled=y phases=2 Linecode=1P_OH_AL_2/0_Rucina_0_416_0_2_0_2_2_2

New Line.l(r:p3udm4197-p3ulv1394) Units=km Length=0.023404800000000003 bus1=p3udm4197.1.2 bus2=p3ulv1394.1.2 switch=n enabled=y phases=2 Linecode=1P_OH_AL_2/0_Rucina_0_416_0_2_2_2_2

New Line.l(r:p3udm4197-p3udt1221lv) Units=km Length=0.0190304 bus1=p3udt1221lv.1.2 bus2=p3udm4197.1.2 switch=n enabled=y phases=2 Linecode=1P_OH_AL_2/0_Rucina_0_416_0_2_2_2_2

New Line.l(r:p3udm4198-p3ulv75017) Units=km Length=0.0198588 bus1=p3udm4198.1.2 bus2=p3ulv75017.1.2 switch=n enabled=y phases=2 Linecode=1P_OH_AL_2/0_Rucina_0_416_0_2_2_2_2

New Line.l(r:p3udm4198-p3udt1221lv) Units=km Length=0.0195028 bus1=p3udt1221lv.1.2 bus2=p3udm4198.1.2 switch=n enabled=y phases=2 Linecode=1P_OH_AL_2/0_Rucina_0_416_0_2_2_2_2

New Line.l(r:p3udt1251lv-p3ulv70495) Units=km Length=0.0149942 bus1=p3udt1251lv.1.2 bus2=p3ulv70495.1.2 switch=n enabled=y phases=2 Linecode=1P_UG_AL_1/0_Brenau_0_416_0_2_2_2_2

New Line.l(r:p3udm4298-p3ulv1424) Units=km Length=0.0167463 bus1=p3udm4298.1.2 bus2=p3ulv1424.1.2 switch=n enabled=y phases=2 Linecode=1P_UG_AL_1/0_Brenau_0_416_0_2_2_2_2

New Line.l(r:p3udm4298-p3udt1251lv) Units=km Length=0.0157746 bus1=p3udt1251lv.1.2 bus2=p3udm4298.1.2 switch=n enabled=y phases=2 Linecode=1P_UG_AL_1/0_Brenau_0_416_0_2_2_2_2

New Line.l(r:p3udm4299-p3ulv57432) Units=km Length=0.0169247 bus1=p3udm4299.1.2 bus2=p3ulv57432.1.2 switch=n enabled=y phases=2 Linecode=1P_UG_AL_1/0_Brenau_0_416_0_2_2_2_2

New Line.l(r:p3udm4299-p3udt1251lv) Units=km Length=0.00937389 bus1=p3udt1251lv.1.2 bus2=p3udm4299.1.2 switch=n enabled=y phases=2 Linecode=1P_UG_AL_1/0_Brenau_0_416_0_2_2_2_2

New Line.l(r:p3udt1252lv-p3ulv1425) Units=km Length=0.016007 bus1=p3udt1252lv.1.2 bus2=p3ulv1425.1.2 switch=n enabled=y phases=2 Linecode=1P_UG_AL_1/0_Brenau_0_416_0_2_2_2_2

New Line.l(r:p3udm4302-p3ulv6179) Units=km Length=0.0156537 bus1=p3udm4302.1.2 bus2=p3ulv6179.1.2 switch=n enabled=y phases=2 Linecode=1P_UG_AL_1/0_Brenau_0_416_0_2_2_2_2

New Line.l(r:p3udm4302-p3udt1252lv) Units=km Length=0.00948356 bus1=p3udt1252lv.1.2 bus2=p3udm4302.1.2 switch=n enabled=y phases=2 Linecode=1P_UG_AL_1/0_Brenau_0_416_0_2_2_2_2

New Line.l(r:p3udm4303-p3ulv78928) Units=km Length=0.0159936 bus1=p3udm4303.1.2 bus2=p3ulv78928.1.2 switch=n enabled=y phases=2 Linecode=1P_UG_AL_1/0_Brenau_0_416_0_2_2_2_2

New Line.l(r:p3udm4303-p3udt1252lv) Units=km Length=0.00947357 bus1=p3udt1252lv.1.2 bus2=p3udm4303.1.2 switch=n enabled=y phases=2 Linecode=1P_UG_AL_1/0_Brenau_0_416_0_2_2_2_2

New Line.l(r:p3udt1253lv-p3ulv17924) Units=km Length=0.0174399 bus1=p3udt1253lv.1.2 bus2=p3ulv17924.1.2 switch=n enabled=y phases=2 Linecode=1P_UG_AL_1/0_Brenau_0_416_0_2_2_2_2

New Line.l(r:p3udm4304-p3ulv1426) Units=km Length=0.0155777 bus1=p3udm4304.1.2 bus2=p3ulv1426.1.2 switch=n enabled=y phases=2 Linecode=1P_UG_AL_1/0_Brenau_0_416_0_2_2_2_2

New Line.l(r:p3udm4304-p3ulv38130) Units=km Length=0.028148 bus1=p3udm4304.1.2 bus2=p3ulv38130.1.2 switch=n enabled=y phases=2 Linecode=1P_UG_AL_1/0_Brenau_0_416_0_2_2_2_2

New Line.l(r:p3udm4304-p3ulv47542) Units=km Length=0.0158785 bus1=p3udm4304.1.2 bus2=p3ulv47542.1.2 switch=n enabled=y phases=2 Linecode=1P_UG_AL_1/0_Brenau_0_416_0_2_2_2_2

New Line.l(r:p3udm4304-p3udt1253lv) Units=km Length=0.00924434 bus1=p3udt1253lv.1.2 bus2=p3udm4304.1.2 switch=n enabled=y phases=2 Linecode=1P_UG_AL_4/0_Sweetbriar_0_416_0_2_2_2_2

New Line.l(r:p3udm4308-p3ulv52062) Units=km Length=0.0125578 bus1=p3udm4308.1.2 bus2=p3ulv52062.1.2 switch=n enabled=y phases=2 Linecode=1P_UG_AL_1/0_Brenau_0_416_0_2_2_2_2

New Line.l(r:p3udm4308-p3udt1253lv) Units=km Length=0.018480300000000005 bus1=p3udt1253lv.1.2 bus2=p3udm4308.1.2 switch=n enabled=y phases=2 Linecode=1P_UG_AL_1/0_Brenau_0_416_0_2_2_2_2

New Line.l(r:p3udt1259lv-p3ulv1432) Units=km Length=0.030155 bus1=p3udt1259lv.1.2 bus2=p3ulv1432.1.2 switch=n enabled=y phases=2 Linecode=1P_UG_AL_1/0_Brenau_0_416_0_2_2_2_2

New Line.l(r:p3udt1259lv-p3ulv3827) Units=km Length=0.0232999 bus1=p3udt1259lv.1.2 bus2=p3ulv3827.1.2 switch=n enabled=y phases=2 Linecode=1P_UG_AL_1/0_Brenau_0_416_0_2_2_2_2

New Line.l(r:p3udt1259lv-p3ulv8580) Units=km Length=0.0244624 bus1=p3udt1259lv.1.2 bus2=p3ulv8580.1.2 switch=n enabled=y phases=2 Linecode=1P_UG_AL_1/0_Brenau_0_416_0_2_2_2_2

New Line.l(r:p3udt1259lv-p3ulv31964) Units=km Length=0.0319428 bus1=p3udt1259lv.1.2 bus2=p3ulv31964.1.2 switch=n enabled=y phases=2 Linecode=1P_UG_AL_1/0_Brenau_0_416_0_2_2_2_2

New Line.l(r:p3udt1259lv-p3ulv70501) Units=km Length=0.0222019 bus1=p3udt1259lv.1.2 bus2=p3ulv70501.1.2 switch=n enabled=y phases=2 Linecode=1P_UG_AL_1/0_Brenau_0_416_0_2_2_2_2

New Line.l(r:p3udm4354-p3ulv1439) Units=km Length=0.0208489 bus1=p3udm4354.1.2 bus2=p3ulv1439.1.2 switch=n enabled=y phases=2 Linecode=1P_UG_AL_1/0_Brenau_0_416_0_2_2_2_2

New Line.l(r:p3udm4354-p3udt1266lv) Units=km Length=0.0190251 bus1=p3udt1266lv.1.2 bus2=p3udm4354.1.2 switch=n enabled=y phases=2 Linecode=1P_UG_AL_1/0_Brenau_0_416_0_2_2_2_2

New Line.l(r:p3udm4356-p3ulv42030) Units=km Length=0.014211000000000001 bus1=p3udm4356.1.2 bus2=p3ulv42030.1.2 switch=n enabled=y phases=2 Linecode=1P_UG_AL_1/0_Brenau_0_416_0_2_2_2_2

New Line.l(r:p3udm4355-p3ulv38894) Units=km Length=0.00953483 bus1=p3udm4355.1.2 bus2=p3ulv38894.1.2 switch=n enabled=y phases=2 Linecode=1P_UG_AL_1/0_Brenau_0_416_0_2_2_2_2

New Line.l(r:p3udm4355-p3udm4356) Units=km Length=0.00942008 bus1=p3udm4356.1.2 bus2=p3udm4355.1.2 switch=n enabled=y phases=2 Linecode=1P_UG_AL_1/0_Brenau_0_416_0_2_2_2_2

New Line.l(r:p3udm4356-p3udt1266lv) Units=km Length=0.0094293 bus1=p3udt1266lv.1.2 bus2=p3udm4356.1.2 switch=n enabled=y phases=2 Linecode=1P_UG_AL_4/0_Sweetbriar_0_416_0_2_2_2_2

New Line.l(r:p3udt1268lv-p3ulv14825) Units=km Length=0.0174053 bus1=p3udt1268lv.1.2 bus2=p3ulv14825.1.2 switch=n enabled=y phases=2 Linecode=1P_UG_AL_1/0_Brenau_0_416_0_2_2_2_2

New Line.l(r:p3udt1268lv-p3ulv20228) Units=km Length=0.0234779 bus1=p3udt1268lv.1.2 bus2=p3ulv20228.1.2 switch=n enabled=y phases=2 Linecode=1P_UG_AL_1/0_Brenau_0_416_0_2_2_2_2

New Line.l(r:p3udm4360-p3ulv1441) Units=km Length=0.024525300000000003 bus1=p3udm4360.1.2 bus2=p3ulv1441.1.2 switch=n enabled=y phases=2 Linecode=1P_UG_AL_1/0_Brenau_0_416_0_2_2_2_2

New Line.l(r:p3udm4365-p3ulv80431) Units=km Length=0.0266193 bus1=p3udm4365.1.2 bus2=p3ulv80431.1.2 switch=n enabled=y phases=2 Linecode=1P_UG_AL_1/0_Brenau_0_416_0_2_2_2_2

New Line.l(r:p3udm4360-p3udm4365) Units=km Length=0.0092596 bus1=p3udm4360.1.2 bus2=p3udm4365.1.2 switch=n enabled=y phases=2 Linecode=1P_UG_AL_1/0_Brenau_0_416_0_2_2_2_2

New Line.l(r:p3udm4360-p3udt1268lv) Units=km Length=0.0092692 bus1=p3udt1268lv.1.2 bus2=p3udm4360.1.2 switch=n enabled=y phases=2 Linecode=1P_UG_AL_4/0_Sweetbriar_0_416_0_2_2_2_2

New Line.l(r:p3udm4363-p3ulv24197) Units=km Length=0.016374700000000002 bus1=p3udm4363.1.2 bus2=p3ulv24197.1.2 switch=n enabled=y phases=2 Linecode=1P_UG_AL_1/0_Brenau_0_416_0_2_2_2_2

New Line.l(r:p3udm4363-p3ulv54395) Units=km Length=0.0150741 bus1=p3udm4363.1.2 bus2=p3ulv54395.1.2 switch=n enabled=y phases=2 Linecode=1P_UG_AL_1/0_Brenau_0_416_0_2_2_2_2

New Line.l(r:p3udm4363-p3udt1268lv) Units=km Length=0.0134368 bus1=p3udt1268lv.1.2 bus2=p3udm4363.1.2 switch=n enabled=y phases=2 Linecode=1P_UG_AL_4/0_Sweetbriar_0_416_0_2_2_2_2

New Line.l(r:p3udt1269lv-p3ulv1442) Units=km Length=0.01702 bus1=p3udt1269lv.1.2 bus2=p3ulv1442.1.2 switch=n enabled=y phases=2 Linecode=1P_UG_AL_1/0_Brenau_0_416_0_2_2_2_2

New Line.l(r:p3udt1269lv-p3ulv31159) Units=km Length=0.0161198 bus1=p3udt1269lv.1.2 bus2=p3ulv31159.1.2 switch=n enabled=y phases=2 Linecode=1P_UG_AL_1/0_Brenau_0_416_0_2_2_2_2

New Line.l(r:p3udm4367-p3ulv11747) Units=km Length=0.0156812 bus1=p3udm4367.1.2 bus2=p3ulv11747.1.2 switch=n enabled=y phases=2 Linecode=1P_UG_AL_1/0_Brenau_0_416_0_2_2_2_2

New Line.l(r:p3udm4367-p3udt1269lv) Units=km Length=0.00774758 bus1=p3udt1269lv.1.2 bus2=p3udm4367.1.2 switch=n enabled=y phases=2 Linecode=1P_UG_AL_1/0_Brenau_0_416_0_2_2_2_2

New Line.l(r:p3udm4369-p3ulv38898) Units=km Length=0.0143391 bus1=p3udm4369.1.2 bus2=p3ulv38898.1.2 switch=n enabled=y phases=2 Linecode=1P_UG_AL_1/0_Brenau_0_416_0_2_2_2_2

New Line.l(r:p3udm4369-p3udt1269lv) Units=km Length=0.00774758 bus1=p3udt1269lv.1.2 bus2=p3udm4369.1.2 switch=n enabled=y phases=2 Linecode=1P_UG_AL_1/0_Brenau_0_416_0_2_2_2_2

New Line.l(r:p3udm4370-p3ulv1443) Units=km Length=0.0200931 bus1=p3udm4370.1.2 bus2=p3ulv1443.1.2 switch=n enabled=y phases=2 Linecode=1P_UG_AL_1/0_Brenau_0_416_0_2_2_2_2

New Line.l(r:p3udm4370-p3ulv19482) Units=km Length=0.0156703 bus1=p3udm4370.1.2 bus2=p3ulv19482.1.2 switch=n enabled=y phases=2 Linecode=1P_UG_AL_1/0_Brenau_0_416_0_2_2_2_2

New Line.l(r:p3udm4370-p3ulv28132) Units=km Length=0.0156175 bus1=p3udm4370.1.2 bus2=p3ulv28132.1.2 switch=n enabled=y phases=2 Linecode=1P_UG_AL_1/0_Brenau_0_416_0_2_2_2_2

New Line.l(r:p3udm4370-p3udt1270lv) Units=km Length=0.00956157 bus1=p3udt1270lv.1.2 bus2=p3udm4370.1.2 switch=n enabled=y phases=2 Linecode=1P_UG_AL_4/0_Sweetbriar_0_416_0_2_2_2_2

New Line.l(r:p3udm4371-p3ulv10936) Units=km Length=0.0134747 bus1=p3udm4371.1.2 bus2=p3ulv10936.1.2 switch=n enabled=y phases=2 Linecode=1P_UG_AL_1/0_Brenau_0_416_0_2_2_2_2

New Line.l(r:p3udm4375-p3ulv60482) Units=km Length=0.0157069 bus1=p3udm4375.1.2 bus2=p3ulv60482.1.2 switch=n enabled=y phases=2 Linecode=1P_UG_AL_1/0_Brenau_0_416_0_2_2_2_2

New Line.l(r:p3udm4374-p3ulv36635) Units=km Length=0.0151476 bus1=p3udm4374.1.2 bus2=p3ulv36635.1.2 switch=n enabled=y phases=2 Linecode=1P_UG_AL_1/0_Brenau_0_416_0_2_2_2_2

New Line.l(r:p3udm4374-p3udm4375) Units=km Length=0.010575700000000002 bus1=p3udm4375.1.2 bus2=p3udm4374.1.2 switch=n enabled=y phases=2 Linecode=1P_UG_AL_1/0_Brenau_0_416_0_2_2_2_2

New Line.l(r:p3udm4371-p3udm4375) Units=km Length=0.00664063 bus1=p3udm4371.1.2 bus2=p3udm4375.1.2 switch=n enabled=y phases=2 Linecode=1P_UG_AL_4/0_Sweetbriar_0_416_0_2_2_2_2

New Line.l(r:p3udm4371-p3udt1270lv) Units=km Length=0.0066285 bus1=p3udt1270lv.1.2 bus2=p3udm4371.1.2 switch=n enabled=y phases=2 Linecode=1P_UG_AL_4/0_Sweetbriar_0_416_0_2_2_2_2

New Line.l(r:p3udt1271lv-p3ulv1444) Units=km Length=0.013584000000000002 bus1=p3udt1271lv.1.2 bus2=p3ulv1444.1.2 switch=n enabled=y phases=2 Linecode=1P_UG_AL_1/0_Brenau_0_416_0_2_2_2_2

New Line.l(r:p3udm4377-p3ulv10935) Units=km Length=0.0167371 bus1=p3udm4377.1.2 bus2=p3ulv10935.1.2 switch=n enabled=y phases=2 Linecode=1P_UG_AL_1/0_Brenau_0_416_0_2_2_2_2

New Line.l(r:p3udm4377-p3udt1271lv) Units=km Length=0.00951458 bus1=p3udt1271lv.1.2 bus2=p3udm4377.1.2 switch=n enabled=y phases=2 Linecode=1P_UG_AL_1/0_Brenau_0_416_0_2_2_2_2

New Line.l(r:p3udm4379-p3ulv69707) Units=km Length=0.014109200000000002 bus1=p3udm4379.1.2 bus2=p3ulv69707.1.2 switch=n enabled=y phases=2 Linecode=1P_UG_AL_1/0_Brenau_0_416_0_2_2_2_2

New Line.l(r:p3udm4378-p3ulv47558) Units=km Length=0.0173324 bus1=p3udm4378.1.2 bus2=p3ulv47558.1.2 switch=n enabled=y phases=2 Linecode=1P_UG_AL_4/0_Sweetbriar_0_416_0_2_2_2_2

New Line.l(r:p3udm4378-p3udm4379) Units=km Length=0.00951458 bus1=p3udm4379.1.2 bus2=p3udm4378.1.2 switch=n enabled=y phases=2 Linecode=1P_UG_AL_4/0_Sweetbriar_0_416_0_2_2_2_2

New Line.l(r:p3udm4379-p3udt1271lv) Units=km Length=0.00950731 bus1=p3udt1271lv.1.2 bus2=p3udm4379.1.2 switch=n enabled=y phases=2 Linecode=1P_UG_AL_4/0_Sweetbriar_0_416_0_2_2_2_2

New Line.l(r:p3udt1272lv-p3ulv1445) Units=km Length=0.0157362 bus1=p3udt1272lv.1.2 bus2=p3ulv1445.1.2 switch=n enabled=y phases=2 Linecode=1P_UG_AL_1/0_Brenau_0_416_0_2_2_2_2

New Line.l(r:p3udt1272lv-p3ulv9334) Units=km Length=0.0129698 bus1=p3udt1272lv.1.2 bus2=p3ulv9334.1.2 switch=n enabled=y phases=2 Linecode=1P_UG_AL_1/0_Brenau_0_416_0_2_2_2_2

New Line.l(r:p3udm4382-p3ulv12489) Units=km Length=0.0165829 bus1=p3udm4382.1.2 bus2=p3ulv12489.1.2 switch=n enabled=y phases=2 Linecode=1P_UG_AL_1/0_Brenau_0_416_0_2_2_2_2

New Line.l(r:p3udm4382-p3udt1272lv) Units=km Length=0.0175207 bus1=p3udt1272lv.1.2 bus2=p3udm4382.1.2 switch=n enabled=y phases=2 Linecode=1P_UG_AL_1/0_Brenau_0_416_0_2_2_2_2

New Line.l(r:p3udm4383-p3ulv51299) Units=km Length=0.0196002 bus1=p3udm4383.1.2 bus2=p3ulv51299.1.2 switch=n enabled=y phases=2 Linecode=1P_UG_AL_1/0_Brenau_0_416_0_2_2_2_2

New Line.l(r:p3udm4383-p3udt1272lv) Units=km Length=0.00812481 bus1=p3udt1272lv.1.2 bus2=p3udm4383.1.2 switch=n enabled=y phases=2 Linecode=1P_UG_AL_1/0_Brenau_0_416_0_2_2_2_2

New Line.l(r:p3udt1584lv-p3ulv47867) Units=km Length=0.012386 bus1=p3udt1584lv.1.2 bus2=p3ulv47867.1.2 switch=n enabled=y phases=2 Linecode=1P_OH_AL_2/0_Rucina_0_416_0_2_2_2_2

New Line.l(r:p3udm5530-p3ulv1769) Units=km Length=0.00754001 bus1=p3udm5530.1.2 bus2=p3ulv1769.1.2 switch=n enabled=y phases=2 Linecode=1P_OH_AL_2/0_Rucina_0_416_0_2_2_2_2

New Line.l(r:p3udm5530-p3udt1584lv) Units=km Length=0.0378801 bus1=p3udt1584lv.1.2 bus2=p3udm5530.1.2 switch=n enabled=y phases=2 Linecode=1P_OH_AL_4/0_Zuzara_0_416_0_2_2_2_2

New Line.l(r:p3udm5531-p3ulv47866) Units=km Length=0.0109353 bus1=p3udm5531.1.2 bus2=p3ulv47866.1.2 switch=n enabled=y phases=2 Linecode=1P_OH_AL_2/0_Rucina_0_416_0_2_2_2_2

New Line.l(r:p3udm5531-p3udt1584lv) Units=km Length=0.0378899 bus1=p3udt1584lv.1.2 bus2=p3udm5531.1.2 switch=n enabled=y phases=2 Linecode=1P_OH_AL_4/0_Zuzara_0_416_0_2_2_2_2

New Line.l(r:p3udt1585lv-p3ulv11277) Units=km Length=0.0155028 bus1=p3udt1585lv.1.2 bus2=p3ulv11277.1.2 switch=n enabled=y phases=2 Linecode=1P_OH_AL_2/0_Rucina_0_416_0_2_2_2_2

New Line.l(r:p3udt1585lv-p3ulv50112) Units=km Length=0.0165827 bus1=p3udt1585lv.1.2 bus2=p3ulv50112.1.2 switch=n enabled=y phases=2 Linecode=1P_OH_AL_2/0_Rucina_0_416_0_2_2_2_2

New Line.l(r:p3udm5533-p3ulv1770) Units=km Length=0.0161639 bus1=p3udm5533.1.2 bus2=p3ulv1770.1.2 switch=n enabled=y phases=2 Linecode=1P_OH_AL_2/0_Rucina_0_416_0_2_2_2_2

New Line.l(r:p3udm5533-p3ulv57005) Units=km Length=0.0156085 bus1=p3udm5533.1.2 bus2=p3ulv57005.1.2 switch=n enabled=y phases=2 Linecode=1P_OH_AL_2/0_Rucina_0_416_0_2_2_2_2

New Line.l(r:p3udm5533-p3udt1585lv) Units=km Length=0.015338200000000001 bus1=p3udt1585lv.1.2 bus2=p3udm5533.1.2 switch=n enabled=y phases=2 Linecode=1P_OH_AL_2/0_Rucina_0_416_0_2_2_2_2

New Line.l(r:p3udm5535-p3ulv42369) Units=km Length=0.0154644 bus1=p3udm5535.1.2 bus2=p3ulv42369.1.2 switch=n enabled=y phases=2 Linecode=1P_OH_AL_2/0_Rucina_0_416_0_2_2_2_2

New Line.l(r:p3udm5535-p3udt1585lv) Units=km Length=0.0772436 bus1=p3udt1585lv.1.2 bus2=p3udm5535.1.2 switch=n enabled=y phases=2 Linecode=1P_OH_AL_4/0_Zuzara_0_416_0_2_2_2_2

New Line.l(r:p3udt1950lv-p3ulv2163) Units=km Length=0.0229571 bus1=p3udt1950lv.1.2 bus2=p3ulv2163.1.2 switch=n enabled=y phases=2 Linecode=1P_OH_AL_2/0_Rucina_0_416_0_2_2_2_2

New Line.l(r:p3udt1950lv-p3ulv15564) Units=km Length=0.0198832 bus1=p3udt1950lv.1.2 bus2=p3ulv15564.1.2 switch=n enabled=y phases=2 Linecode=1P_OH_AL_2/0_Rucina_0_416_0_2_2_2_2

New Line.l(r:p3udt1950lv-p3ulv24135) Units=km Length=0.0597647 bus1=p3udt1950lv.1.2 bus2=p3ulv24135.1.2 switch=n enabled=y phases=2 Linecode=1P_OH_AL_4/0_Zuzara_0_416_0_2_2_2_2

New Line.l(r:p3udm6739-p3ulv16374) Units=km Length=0.027731500000000003 bus1=p3udm6739.1.2 bus2=p3ulv16374.1.2 switch=n enabled=y phases=2 Linecode=1P_OH_AL_4/0_Zuzara_0_416_0_2_2_2_2

New Line.l(r:p3udm6739-p3udt1950lv) Units=km Length=0.0184842 bus1=p3udt1950lv.1.2 bus2=p3udm6739.1.2 switch=n enabled=y phases=2 Linecode=1P_OH_AL_2/0_Rucina_0_416_0_2_2_2_2

New Line.l(r:p3udt1984lv-p3ulv2199) Units=km Length=0.0151462 bus1=p3udt1984lv.1.2 bus2=p3ulv2199.1.2 switch=n enabled=y phases=2 Linecode=1P_UG_AL_1/0_Brenau_0_416_0_2_2_2_2

New Line.l(r:p3udm6851-p3ulv17159) Units=km Length=0.0119017 bus1=p3udm6851.1.2 bus2=p3ulv17159.1.2 switch=n enabled=y phases=2 Linecode=1P_UG_AL_2/0_Converse_0_416_0_2_2_2_2

New Line.l(r:p3udm6851-p3udt1984lv) Units=km Length=0.00899389 bus1=p3udt1984lv.1.2 bus2=p3udm6851.1.2 switch=n enabled=y phases=2 Linecode=1P_UG_AL_2/0_Converse_0_416_0_2_2_2_2

New Line.l(r:p3udm6852-p3ulv20986) Units=km Length=0.021650600000000002 bus1=p3udm6852.1.2 bus2=p3ulv20986.1.2 switch=n enabled=y phases=2 Linecode=1P_UG_AL_1/0_Brenau_0_416_0_2_2_2_2

New Line.l(r:p3udm6852-p3udt1984lv) Units=km Length=0.00930026 bus1=p3udt1984lv.1.2 bus2=p3udm6852.1.2 switch=n enabled=y phases=2 Linecode=1P_UG_AL_1/0_Brenau_0_416_0_2_2_2_2

New Line.l(r:p3udt1990lv-p3ulv2206) Units=km Length=0.0246633 bus1=p3udt1990lv.1.2 bus2=p3ulv2206.1.2 switch=n enabled=y phases=2 Linecode=1P_UG_AL_1/0_Brenau_0_416_0_2_2_2_2

New Line.l(r:p3udt1993lv-p3ulv2210) Units=km Length=0.0157451 bus1=p3udt1993lv.1.2 bus2=p3ulv2210.1.2 switch=n enabled=y phases=2 Linecode=1P_UG_AL_2/0_Converse_0_416_0_2_2_2_2

New Line.l(r:p3udt1994lv-p3ulv2211) Units=km Length=0.0187655 bus1=p3udt1994lv.1.2 bus2=p3ulv2211.1.2 switch=n enabled=y phases=2 Linecode=1P_UG_AL_1/0_Brenau_0_416_0_2_2_2_2

New Line.l(r:p3udt1995lv-p3ulv66589) Units=km Length=0.0141825 bus1=p3udt1995lv.1.2 bus2=p3ulv66589.1.2 switch=n enabled=y phases=2 Linecode=1P_UG_AL_1/0_Brenau_0_416_0_2_2_2_2

New Line.l(r:p3udm6880-p3ulv2212) Units=km Length=0.0163777 bus1=p3udm6880.1.2 bus2=p3ulv2212.1.2 switch=n enabled=y phases=2 Linecode=1P_UG_AL_1/0_Brenau_0_416_0_2_2_2_2

New Line.l(r:p3udm6880-p3udt1995lv) Units=km Length=0.00959587 bus1=p3udt1995lv.1.2 bus2=p3udm6880.1.2 switch=n enabled=y phases=2 Linecode=1P_UG_AL_1/0_Brenau_0_416_0_2_2_2_2

New Line.l(r:p3udm6882-p3ulv68972) Units=km Length=0.020348 bus1=p3udm6882.1.2 bus2=p3ulv68972.1.2 switch=n enabled=y phases=2 Linecode=1P_UG_AL_1/0_Brenau_0_416_0_2_2_2_2

New Line.l(r:p3udm6882-p3udt1995lv) Units=km Length=0.0976625 bus1=p3udt1995lv.1.2 bus2=p3udm6882.1.2 switch=n enabled=y phases=2 Linecode=1P_UG_AL_1/0_Brenau_0_416_0_2_2_2_2

New Line.l(r:p3udt1996lv-p3ulv2213) Units=km Length=0.0273898 bus1=p3udt1996lv.1.2 bus2=p3ulv2213.1.2 switch=n enabled=y phases=2 Linecode=1P_OH_AL_4/0_Zuzara_0_416_0_2_2_2_2

New Line.l(r:p3udt1997lv-p3ulv14821) Units=km Length=0.0149736 bus1=p3udt1997lv.1.2 bus2=p3ulv14821.1.2 switch=n enabled=y phases=2 Linecode=1P_UG_AL_1/0_Brenau_0_416_0_2_2_2_2

New Line.l(r:p3udm6884-p3ulv2214) Units=km Length=0.012994800000000003 bus1=p3udm6884.1.2 bus2=p3ulv2214.1.2 switch=n enabled=y phases=2 Linecode=1P_UG_AL_1/0_Brenau_0_416_0_2_2_2_2

New Line.l(r:p3udm6884-p3udt1997lv) Units=km Length=0.0074493 bus1=p3udt1997lv.1.2 bus2=p3udm6884.1.2 switch=n enabled=y phases=2 Linecode=1P_UG_AL_1/0_Brenau_0_416_0_2_2_2_2

New Line.l(r:p3udm6886-p3ulv28849) Units=km Length=0.0153927 bus1=p3udm6886.1.2 bus2=p3ulv28849.1.2 switch=n enabled=y phases=2 Linecode=1P_UG_AL_1/0_Brenau_0_416_0_2_2_2_2

New Line.l(r:p3udm6886-p3udt1997lv) Units=km Length=0.0161816 bus1=p3udt1997lv.1.2 bus2=p3udm6886.1.2 switch=n enabled=y phases=2 Linecode=1P_UG_AL_1/0_Brenau_0_416_0_2_2_2_2

New Line.l(r:p3udt1998lv-p3ulv31160) Units=km Length=0.0151867 bus1=p3udt1998lv.1.2 bus2=p3ulv31160.1.2 switch=n enabled=y phases=2 Linecode=1P_UG_AL_1/0_Brenau_0_416_0_2_2_2_2

New Line.l(r:p3udm6887-p3ulv2215) Units=km Length=0.0161059 bus1=p3udm6887.1.2 bus2=p3ulv2215.1.2 switch=n enabled=y phases=2 Linecode=1P_UG_AL_4/0_Sweetbriar_0_416_0_2_2_2_2

New Line.l(r:p3udm6887-p3ulv31977) Units=km Length=0.013566000000000002 bus1=p3udm6887.1.2 bus2=p3ulv31977.1.2 switch=n enabled=y phases=2 Linecode=1P_UG_AL_1/0_Brenau_0_416_0_2_2_2_2

New Line.l(r:p3udm6887-p3udt1998lv) Units=km Length=0.00950607 bus1=p3udt1998lv.1.2 bus2=p3udm6887.1.2 switch=n enabled=y phases=2 Linecode=1P_UG_AL_4/0_Sweetbriar_0_416_0_2_2_2_2

New Line.l(r:p3udm6890-p3ulv55933) Units=km Length=0.0148071 bus1=p3udm6890.1.2 bus2=p3ulv55933.1.2 switch=n enabled=y phases=2 Linecode=1P_UG_AL_1/0_Brenau_0_416_0_2_2_2_2

New Line.l(r:p3udm6890-p3udt1998lv) Units=km Length=0.0285116 bus1=p3udt1998lv.1.2 bus2=p3udm6890.1.2 switch=n enabled=y phases=2 Linecode=1P_UG_AL_1/0_Brenau_0_416_0_2_2_2_2

New Line.l(r:p3udt1999lv-p3ulv2216) Units=km Length=0.0256305 bus1=p3udt1999lv.1.2 bus2=p3ulv2216.1.2 switch=n enabled=y phases=2 Linecode=1P_UG_AL_1/0_Brenau_0_416_0_2_2_2_2

New Line.l(r:p3udm6892-p3ulv12488) Units=km Length=0.0157901 bus1=p3udm6892.1.2 bus2=p3ulv12488.1.2 switch=n enabled=y phases=2 Linecode=1P_UG_AL_1/0_Brenau_0_416_0_2_2_2_2

New Line.l(r:p3udm6892-p3udt1999lv) Units=km Length=0.0082487 bus1=p3udt1999lv.1.2 bus2=p3udm6892.1.2 switch=n enabled=y phases=2 Linecode=1P_UG_AL_1/0_Brenau_0_416_0_2_2_2_2

New Line.l(r:p3udm6893-p3ulv24194) Units=km Length=0.0289798 bus1=p3udm6893.1.2 bus2=p3ulv24194.1.2 switch=n enabled=y phases=2 Linecode=1P_UG_AL_1/0_Brenau_0_416_0_2_2_2_2

New Line.l(r:p3udm6893-p3udt1999lv) Units=km Length=0.0139514 bus1=p3udt1999lv.1.2 bus2=p3udm6893.1.2 switch=n enabled=y phases=2 Linecode=1P_UG_AL_1/0_Brenau_0_416_0_2_2_2_2

New Line.l(r:p3udt2316lv-p3ulv2559) Units=km Length=0.00650225 bus1=p3udt2316lv.1.2 bus2=p3ulv2559.1.2 switch=n enabled=y phases=2 Linecode=1P_OH_AL_2/0_Rucina_0_416_0_2_2_2_2

New Line.l(r:p3udt2316lv-p3ulv26921) Units=km Length=0.00650225 bus1=p3udt2316lv.1.2 bus2=p3ulv26921.1.2 switch=n enabled=y phases=2 Linecode=1P_OH_AL_2/0_Rucina_0_416_0_2_2_2_2

New Line.l(r:p3udt2317lv-p3ulv2560) Units=km Length=0.0660731 bus1=p3udt2317lv.1.2 bus2=p3ulv2560.1.2 switch=n enabled=y phases=2 Linecode=1P_OH_AL_4/0_Zuzara_0_416_0_2_2_2_2
