New Load.load_p1umv3 conn=wye bus1=p1umv3.1.2.3 kV=12.47 Vminpu=0.8 Vmaxpu=1.2 model=1 kW=857.879 kvar=281.971191466738 Phases=3

New Load.load_p1ulv1699 conn=wye bus1=p1ulv1699.1.2 kV=0.2080002494301389 Vminpu=0.8 Vmaxpu=1.2 model=1 kW=2.69003 kvar=0.5504422049321929 Phases=2

New Load.load_p1ulv3021 conn=wye bus1=p1ulv3021.1.2.3 kV=0.48 Vminpu=0.8 Vmaxpu=1.2 model=1 kW=26.070299999999996 kvar=5.2938002003266815 Phases=3

New Load.load_p1ulv4203 conn=wye bus1=p1ulv4203.1.2.3 kV=0.48 Vminpu=0.8 Vmaxpu=1.2 model=1 kW=154.482 kvar=50.77577793624114 Phases=3

New Load.load_p1ulv4876 conn=wye bus1=p1ulv4876.1.2.3 kV=0.48 Vminpu=0.8 Vmaxpu=1.2 model=1 kW=43.07039999999999 kvar=8.745817736970817 Phases=3

New Load.load_p1ulv5442 conn=wye bus1=p1ulv5442.1.2.3 kV=0.48 Vminpu=0.8 Vmaxpu=1.2 model=1 kW=155.47200000000004 kvar=51.10117520036822 Phases=3

New Load.load_p1umv12 conn=wye bus1=p1umv12.1.2.3 kV=12.47 Vminpu=0.8 Vmaxpu=1.2 model=1 kW=1461.3800000000003 kvar=480.3323776262871 Phases=3

New Load.load_p1ulv8617 conn=wye bus1=p1ulv8617.1.2 kV=0.2080002494301389 Vminpu=0.8 Vmaxpu=1.2 model=1 kW=7.55008 kvar=1.5291541380118512 Phases=2

New Load.load_p1ulv10543 conn=wye bus1=p1ulv10543.1.2 kV=0.2080002494301389 Vminpu=0.8 Vmaxpu=1.2 model=1 kW=1.3100100000000001 kvar=0.2700939798935751 Phases=2

New Load.load_p1ulv10544 conn=wye bus1=p1ulv10544.1.2 kV=0.2080002494301389 Vminpu=0.8 Vmaxpu=1.2 model=1 kW=10.180100000000001 kvar=2.0724780664373723 Phases=2

New Load.load_p1ulv11703 conn=wye bus1=p1ulv11703.1.2.3 kV=0.48 Vminpu=0.8 Vmaxpu=1.2 model=1 kW=30.9803 kvar=6.290818224039643 Phases=3

New Load.load_p1ulv12359 conn=wye bus1=p1ulv12359.1.2.3 kV=0.48 Vminpu=0.8 Vmaxpu=1.2 model=1 kW=31.6403 kvar=6.4248369400580865 Phases=3

New Load.load_p1umv19 conn=wye bus1=p1umv19.1.2.3 kV=12.47 Vminpu=0.8 Vmaxpu=1.2 model=1 kW=1244.73 kvar=409.12296623928637 Phases=3

New Load.load_p1ulv14279 conn=wye bus1=p1ulv14279.1.2 kV=0.2080002494301389 Vminpu=0.8 Vmaxpu=1.2 model=1 kW=19.2102 kvar=3.9007974825113494 Phases=2

New Load.load_p1ulv16817 conn=wye bus1=p1ulv16817.1.2.3 kV=0.48 Vminpu=0.8 Vmaxpu=1.2 model=1 kW=25.140300000000003 kvar=5.104955645937058 Phases=3

New Load.load_p1ulv18096 conn=wye bus1=p1ulv18096.1.2.3 kV=0.48 Vminpu=0.8 Vmaxpu=1.2 model=1 kW=43.6004 kvar=8.853438827106842 Phases=3

New Load.load_p1ulv19334 conn=wye bus1=p1ulv19334.1.2.3 kV=0.48 Vminpu=0.8 Vmaxpu=1.2 model=1 kW=38.0904 kvar=7.734585607013479 Phases=3

New Load.load_p1ulv20690 conn=wye bus1=p1ulv20690.1.2.3 kV=0.48 Vminpu=0.8 Vmaxpu=1.2 model=1 kW=29.430300000000003 kvar=5.976077300056937 Phases=3

New Load.load_p1ulv21336 conn=wye bus1=p1ulv21336.1.2.3 kV=0.48 Vminpu=0.8 Vmaxpu=1.2 model=1 kW=34.6403 kvar=7.034012921960099 Phases=3

New Load.load_p1ulv21876 conn=wye bus1=p1ulv21876.1.2.3 kV=0.48 Vminpu=0.8 Vmaxpu=1.2 model=1 kW=28.690300000000004 kvar=5.825813891187774 Phases=3

New Load.load_p1ulv23793 conn=wye bus1=p1ulv23793.1.2.3 kV=0.48 Vminpu=0.8 Vmaxpu=1.2 model=1 kW=28.8803 kvar=9.49249556279712 Phases=3

New Load.load_p1ulv25136 conn=wye bus1=p1ulv25136.1.2.3 kV=0.48 Vminpu=0.8 Vmaxpu=1.2 model=1 kW=26.3003 kvar=5.340503692272502 Phases=3

New Load.load_p1ulv25764 conn=wye bus1=p1ulv25764.1.2 kV=0.2080002494301389 Vminpu=0.8 Vmaxpu=1.2 model=1 kW=4.02004 kvar=0.8205013197951115 Phases=2

New Load.load_p1ulv27043 conn=wye bus1=p1ulv27043.1.2 kV=0.2080002494301389 Vminpu=0.8 Vmaxpu=1.2 model=1 kW=4.590050000000001 kvar=0.9296449774282256 Phases=2

New Load.load_p1ulv27044 conn=wye bus1=p1ulv27044.1.2.3 kV=0.48 Vminpu=0.8 Vmaxpu=1.2 model=1 kW=32.6903 kvar=6.638048533723791 Phases=3

New Load.load_p1ulv31439 conn=wye bus1=p1ulv31439.1.2.3 kV=0.48 Vminpu=0.8 Vmaxpu=1.2 model=1 kW=37.6804 kvar=7.651331556153535 Phases=3

New Load.load_p1ulv32722 conn=wye bus1=p1ulv32722.1.2.3 kV=0.48 Vminpu=0.8 Vmaxpu=1.2 model=1 kW=35.0504 kvar=7.117287278686104 Phases=3

New Load.load_p1ulv33404 conn=wye bus1=p1ulv33404.1.2.3 kV=0.48 Vminpu=0.8 Vmaxpu=1.2 model=1 kW=31.600299999999997 kvar=6.416714593632725 Phases=3

New Load.load_p1ulv33961 conn=wye bus1=p1ulv33961.1.2 kV=0.2080002494301389 Vminpu=0.8 Vmaxpu=1.2 model=1 kW=14.8001 kvar=3.013023706160033 Phases=2

New Load.load_p1ulv33962 conn=wye bus1=p1ulv33962.1.2.3 kV=0.48 Vminpu=0.8 Vmaxpu=1.2 model=1 kW=30.610299999999995 kvar=6.215686519605062 Phases=3

New Load.load_p1ulv36513 conn=wye bus1=p1ulv36513.1.2.3 kV=0.48 Vminpu=0.8 Vmaxpu=1.2 model=1 kW=30.900300000000005 kvar=6.274573531188922 Phases=3

New Load.load_p1ulv37138 conn=wye bus1=p1ulv37138.1.2.3 kV=0.48 Vminpu=0.8 Vmaxpu=1.2 model=1 kW=31.510300000000004 kvar=6.398439314175667 Phases=3

New Load.load_p1ulv38459 conn=wye bus1=p1ulv38459.1.2.3 kV=0.48 Vminpu=0.8 Vmaxpu=1.2 model=1 kW=33.1603 kvar=6.733486104221773 Phases=3

New Load.load_p1ulv39638 conn=wye bus1=p1ulv39638.1.2.3 kV=0.48 Vminpu=0.8 Vmaxpu=1.2 model=1 kW=56.24059999999999 kvar=18.48539128572237 Phases=3

New Load.load_p1ulv40294 conn=wye bus1=p1ulv40294.1.2.3 kV=0.48 Vminpu=0.8 Vmaxpu=1.2 model=1 kW=30.360299999999995 kvar=6.1649218544465585 Phases=3

New Load.load_p1ulv47206 conn=wye bus1=p1ulv47206.1.2.3 kV=0.48 Vminpu=0.8 Vmaxpu=1.2 model=1 kW=41.010400000000004 kvar=8.32751689606477 Phases=3

New Load.load_p1ulv47278 conn=wye bus1=p1ulv47278.1.2.3 kV=0.48 Vminpu=0.8 Vmaxpu=1.2 model=1 kW=34.8903 kvar=7.084777587118601 Phases=3

New Load.load_p1ulv47834 conn=wye bus1=p1ulv47834.1.2.3 kV=0.48 Vminpu=0.8 Vmaxpu=1.2 model=1 kW=178.922 kvar=58.808817466812556 Phases=3

New Load.load_p1ulv49723 conn=wye bus1=p1ulv49723.1.2 kV=0.2080002494301389 Vminpu=0.8 Vmaxpu=1.2 model=1 kW=5.72006 kvar=1.1585113559957074 Phases=2

New Load.load_p1ulv52170 conn=wye bus1=p1ulv52170.1.2.3 kV=0.48 Vminpu=0.8 Vmaxpu=1.2 model=1 kW=30.540300000000002 kvar=6.201472413360682 Phases=3

New Load.load_p1ulv57140 conn=wye bus1=p1ulv57140.1.2.3 kV=0.48 Vminpu=0.8 Vmaxpu=1.2 model=1 kW=30.4403 kvar=6.1811665472972805 Phases=3

New Load.load_p1ulv57797 conn=wye bus1=p1ulv57797.1.2 kV=0.2080002494301389 Vminpu=0.8 Vmaxpu=1.2 model=1 kW=16.0102 kvar=3.251009768482536 Phases=2

New Load.load_p1ulv61388 conn=wye bus1=p1ulv61388.1.2 kV=0.2080002494301389 Vminpu=0.8 Vmaxpu=1.2 model=1 kW=5.20005 kvar=1.061344635376904 Phases=2

New Load.load_p1ulv62678 conn=wye bus1=p1ulv62678.1.2 kV=0.2080002494301389 Vminpu=0.8 Vmaxpu=1.2 model=1 kW=1.53002 kvar=0.5001733676026157 Phases=2

New Load.load_p1ulv64575 conn=wye bus1=p1ulv64575.1.2 kV=0.2080002494301389 Vminpu=0.8 Vmaxpu=1.2 model=1 kW=3.57004 kvar=0.7193043493362031 Phases=2

New Load.load_p1ulv65203 conn=wye bus1=p1ulv65203.1.2 kV=0.2080002494301389 Vminpu=0.8 Vmaxpu=1.2 model=1 kW=5.26005 kvar=1.070847855459563 Phases=2

New Load.load_p1ulv65204 conn=wye bus1=p1ulv65204.1.2 kV=0.2080002494301389 Vminpu=0.8 Vmaxpu=1.2 model=1 kW=5.36005 kvar=1.091205986189491 Phases=2

