New Line.l(r:p1udt380lv-p1ulv383) Units=km Length=0.0107667 bus1=p1udt380lv.1.2 bus2=p1ulv383.1.2 switch=n enabled=y phases=2 Linecode=1P_OH_AL_2/0_Rucina_0_416_0_2_2_2_2

New Line.l(r:p1udt980lv-p1ulv45978) Units=km Length=0.0104295 bus1=p1udt980lv.1.2 bus2=p1ulv45978.1.2 switch=n enabled=y phases=2 Linecode=1P_UG_AL_1/0_Brenau_0_416_0_2_2_2_2

New Line.l(r:p1udt980lv-p1ulv54735) Units=km Length=0.013599600000000002 bus1=p1udt980lv.1.2 bus2=p1ulv54735.1.2 switch=n enabled=y phases=2 Linecode=1P_UG_AL_1/0_Brenau_0_416_0_2_2_2_2

New Line.l(r:p1udm3580-p1ulv1000) Units=km Length=0.00538472 bus1=p1udm3580.1.2 bus2=p1ulv1000.1.2 switch=n enabled=y phases=2 Linecode=1P_OH_AL_2/0_Rucina_0_416_0_2_2_2_2

New Line.l(r:p1udm3580-p1udt980lv) Units=km Length=0.03262430000000001 bus1=p1udt980lv.1.2 bus2=p1udm3580.1.2 switch=n enabled=y phases=2 Linecode=1P_OH_AL_4/0_Zuzara_0_416_0_2_2_2_2

New Line.l(r:p1udm3582-p1ulv48448) Units=km Length=0.013746400000000002 bus1=p1udm3582.1.2 bus2=p1ulv48448.1.2 switch=n enabled=y phases=2 Linecode=1P_UG_AL_1/0_Brenau_0_416_0_2_2_2_2

New Line.l(r:p1udm3582-p1udt980lv) Units=km Length=0.08119180000000001 bus1=p1udt980lv.1.2 bus2=p1udm3582.1.2 switch=n enabled=y phases=2 Linecode=1P_UG_AL_1/0_Brenau_0_416_0_2_2_2_2

New Line.l(r:p1udm5969-p1ulv1701) Units=km Length=0.015456600000000001 bus1=p1udm5969.1.2 bus2=p1ulv1701.1.2 switch=n enabled=y phases=2 Linecode=1P_UG_AL_1/0_Brenau_0_416_0_2_2_2_2

New Line.l(r:p1udm5971-p1ulv36511) Units=km Length=0.0114633 bus1=p1udm5971.1.2 bus2=p1ulv36511.1.2 switch=n enabled=y phases=2 Linecode=1P_UG_AL_1/0_Brenau_0_416_0_2_2_2_2

New Line.l(r:p1udm5969-p1udm5971) Units=km Length=0.04494720000000001 bus1=p1udm5969.1.2 bus2=p1udm5971.1.2 switch=n enabled=y phases=2 Linecode=1P_UG_AL_1/0_Brenau_0_416_0_2_2_2_2

New Line.l(r:p1udm5969-p1udt1632lv) Units=km Length=0.009179440000000002 bus1=p1udt1632lv.1.2 bus2=p1udm5969.1.2 switch=n enabled=y phases=2 Linecode=1P_UG_AL_2/0_Converse_0_416_0_2_2_2_2

New Line.l(r:p1udm5970-p1ulv4824) Units=km Length=0.013955300000000002 bus1=p1udm5970.1.2 bus2=p1ulv4824.1.2 switch=n enabled=y phases=2 Linecode=1P_UG_AL_2/0_Converse_0_416_0_2_2_2_2

New Line.l(r:p1udm5972-p1ulv54736) Units=km Length=0.0155184 bus1=p1udm5972.1.2 bus2=p1ulv54736.1.2 switch=n enabled=y phases=2 Linecode=1P_UG_AL_2/0_Converse_0_416_0_2_2_2_2

New Line.l(r:p1udm5970-p1udm5972) Units=km Length=0.00917476 bus1=p1udm5970.1.2 bus2=p1udm5972.1.2 switch=n enabled=y phases=2 Linecode=1P_UG_AL_2/0_Converse_0_416_0_2_2_2_2

New Line.l(r:p1udm5970-p1udt1632lv) Units=km Length=0.00917476 bus1=p1udt1632lv.1.2 bus2=p1udm5970.1.2 switch=n enabled=y phases=2 Linecode=1P_UG_AL_4/0_Sweetbriar_0_416_0_2_2_2_2

New Line.l(r:p1udt1640lv-p1ulv21279) Units=km Length=0.0151594 bus1=p1udt1640lv.1.2 bus2=p1ulv21279.1.2 switch=n enabled=y phases=2 Linecode=1P_UG_AL_2/0_Converse_0_416_0_2_2_2_2

New Line.l(r:p1udm6010-p1ulv1710) Units=km Length=0.0149363 bus1=p1udm6010.1.2 bus2=p1ulv1710.1.2 switch=n enabled=y phases=2 Linecode=1P_UG_AL_1/0_Brenau_0_416_0_2_2_2_2

New Line.l(r:p1udm6013-p1ulv31380) Units=km Length=0.0137188 bus1=p1udm6013.1.2 bus2=p1ulv31380.1.2 switch=n enabled=y phases=2 Linecode=1P_UG_AL_2/0_Converse_0_416_0_2_2_2_2

New Line.l(r:p1udm6013-p1ulv42736) Units=km Length=0.0164057 bus1=p1udm6013.1.2 bus2=p1ulv42736.1.2 switch=n enabled=y phases=2 Linecode=1P_UG_AL_1/0_Brenau_0_416_0_2_2_2_2

New Line.l(r:p1udm6010-p1udm6013) Units=km Length=0.00929534 bus1=p1udm6010.1.2 bus2=p1udm6013.1.2 switch=n enabled=y phases=2 Linecode=1P_UG_AL_4/0_Sweetbriar_0_416_0_2_2_2_2

New Line.l(r:p1udm6010-p1udt1640lv) Units=km Length=0.00930411 bus1=p1udt1640lv.1.2 bus2=p1udm6010.1.2 switch=n enabled=y phases=2 Linecode=1P_UG_AL_4/0_Sweetbriar_0_416_0_2_2_2_2

New Line.l(r:p1udm6011-p1ulv11716) Units=km Length=0.013531400000000002 bus1=p1udm6011.1.2 bus2=p1ulv11716.1.2 switch=n enabled=y phases=2 Linecode=1P_UG_AL_1/0_Brenau_0_416_0_2_2_2_2

New Line.l(r:p1udm6011-p1udt1640lv) Units=km Length=0.0371901 bus1=p1udt1640lv.1.2 bus2=p1udm6011.1.2 switch=n enabled=y phases=2 Linecode=1P_UG_AL_1/0_Brenau_0_416_0_2_2_2_2

New Line.l(r:p1udm6015-p1ulv1711) Units=km Length=0.0153787 bus1=p1udm6015.1.2 bus2=p1ulv1711.1.2 switch=n enabled=y phases=2 Linecode=1P_UG_AL_1/0_Brenau_0_416_0_2_2_2_2

New Line.l(r:p1udm6015-p1ulv22489) Units=km Length=0.015465100000000002 bus1=p1udm6015.1.2 bus2=p1ulv22489.1.2 switch=n enabled=y phases=2 Linecode=1P_UG_AL_1/0_Brenau_0_416_0_2_2_2_2

New Line.l(r:p1udm6015-p1udt1641lv) Units=km Length=0.00868484 bus1=p1udt1641lv.1.2 bus2=p1udm6015.1.2 switch=n enabled=y phases=2 Linecode=1P_UG_AL_2/0_Converse_0_416_0_2_2_2_2

New Line.l(r:p1udm6021-p1ulv59552) Units=km Length=0.0136538 bus1=p1udm6021.1.2 bus2=p1ulv59552.1.2 switch=n enabled=y phases=2 Linecode=1P_UG_AL_1/0_Brenau_0_416_0_2_2_2_2

New Line.l(r:p1udm6016-p1ulv9868) Units=km Length=0.00547215 bus1=p1udm6016.1.2 bus2=p1ulv9868.1.2 switch=n enabled=y phases=2 Linecode=1P_OH_AL_2/0_Rucina_0_416_0_2_2_2_2

New Line.l(r:p1udm6019-p1ulv48463) Units=km Length=0.00833452 bus1=p1udm6019.1.2 bus2=p1ulv48463.1.2 switch=n enabled=y phases=2 Linecode=1P_OH_AL_2/0_Rucina_0_416_0_2_2_2_2

New Line.l(r:p1udm6016-p1udm6019) Units=km Length=0.0669278 bus1=p1udm6016.1.2 bus2=p1udm6019.1.2 switch=n enabled=y phases=2 Linecode=1P_OH_AL_4/0_Zuzara_0_416_0_2_2_2_2

New Line.l(r:p1udm6016-p1udm6021) Units=km Length=0.0149107 bus1=p1udm6021.1.2 bus2=p1udm6016.1.2 switch=n enabled=y phases=2 Linecode=1P_OH_AL_2/0_Rucina_0_416_0_2_2_2_2

New Line.l(r:p1udm6020-p1ulv58948) Units=km Length=0.0151813 bus1=p1udm6020.1.2 bus2=p1ulv58948.1.2 switch=n enabled=y phases=2 Linecode=1P_UG_AL_1/0_Brenau_0_416_0_2_2_2_2

New Line.l(r:p1udm6018-p1ulv23807) Units=km Length=0.0127842 bus1=p1udm6018.1.2 bus2=p1ulv23807.1.2 switch=n enabled=y phases=2 Linecode=1P_UG_AL_1/0_Brenau_0_416_0_2_2_2_2

New Line.l(r:p1udm6018-p1udm6020) Units=km Length=0.0197497 bus1=p1udm6020.1.2 bus2=p1udm6018.1.2 switch=n enabled=y phases=2 Linecode=1P_UG_AL_1/0_Brenau_0_416_0_2_2_2_2

New Line.l(r:p1udm6020-p1udm6021) Units=km Length=0.009866030000000001 bus1=p1udm6021.1.2 bus2=p1udm6020.1.2 switch=n enabled=y phases=2 Linecode=1P_UG_AL_2/0_Converse_0_416_0_2_2_2_2

New Line.l(r:p1udm6021-p1udt1641lv) Units=km Length=0.008688900000000001 bus1=p1udt1641lv.1.2 bus2=p1udm6021.1.2 switch=n enabled=y phases=2 Linecode=1P_UG_AL_4/0_Sweetbriar_0_416_0_2_2_2_2

New Line.l(r:p1udt2196lv-p1ulv7384) Units=km Length=0.0132699 bus1=p1udt2196lv.1.2 bus2=p1ulv7384.1.2 switch=n enabled=y phases=2 Linecode=1P_UG_AL_1/0_Brenau_0_416_0_2_2_2_2

New Line.l(r:p1udt2196lv-p1ulv65205) Units=km Length=0.0136308 bus1=p1udt2196lv.1.2 bus2=p1ulv65205.1.2 switch=n enabled=y phases=2 Linecode=1P_UG_AL_1/0_Brenau_0_416_0_2_2_2_2

New Line.l(r:p1udm7967-p1ulv2318) Units=km Length=0.014305300000000002 bus1=p1udm7967.1.2 bus2=p1ulv2318.1.2 switch=n enabled=y phases=2 Linecode=1P_UG_AL_1/0_Brenau_0_416_0_2_2_2_2

New Line.l(r:p1udm7970-p1ulv33337) Units=km Length=0.00511414 bus1=p1udm7970.1.2 bus2=p1ulv33337.1.2 switch=n enabled=y phases=2 Linecode=1P_OH_AL_2/0_Rucina_0_416_0_2_2_2_2

New Line.l(r:p1udm7967-p1udm7970) Units=km Length=0.081287 bus1=p1udm7967.1.2 bus2=p1udm7970.1.2 switch=n enabled=y phases=2 Linecode=1P_OH_AL_4/0_Zuzara_0_416_0_2_2_2_2

New Line.l(r:p1udm7967-p1udt2196lv) Units=km Length=0.0091461 bus1=p1udt2196lv.1.2 bus2=p1udm7967.1.2 switch=n enabled=y phases=2 Linecode=1P_UG_AL_1/0_Brenau_0_416_0_2_2_2_2

New Line.l(r:p1udm7971-p1ulv49072) Units=km Length=0.014003 bus1=p1udm7971.1.2 bus2=p1ulv49072.1.2 switch=n enabled=y phases=2 Linecode=1P_UG_AL_1/0_Brenau_0_416_0_2_2_2_2

New Line.l(r:p1udm7968-p1ulv4825) Units=km Length=0.00516342 bus1=p1udm7968.1.2 bus2=p1ulv4825.1.2 switch=n enabled=y phases=2 Linecode=1P_OH_AL_2/0_Rucina_0_416_0_2_2_2_2

New Line.l(r:p1udm7968-p1udm7971) Units=km Length=0.015902 bus1=p1udm7971.1.2 bus2=p1udm7968.1.2 switch=n enabled=y phases=2 Linecode=1P_OH_AL_2/0_Rucina_0_416_0_2_2_2_2

New Line.l(r:p1udm7971-p1udt2196lv) Units=km Length=0.0182834 bus1=p1udt2196lv.1.2 bus2=p1udm7971.1.2 switch=n enabled=y phases=2 Linecode=1P_UG_AL_2/0_Converse_0_416_0_2_2_2_2

New Line.l(r:p1udt3354lv-p1ulv11082) Units=km Length=0.012846 bus1=p1udt3354lv.1.2 bus2=p1ulv11082.1.2 switch=n enabled=y phases=2 Linecode=1P_UG_AL_1/0_Brenau_0_416_0_2_2_2_2

New Line.l(r:p1udm11853-p1ulv3601) Units=km Length=0.0121365 bus1=p1udm11853.1.2 bus2=p1ulv3601.1.2 switch=n enabled=y phases=2 Linecode=1P_UG_AL_1/0_Brenau_0_416_0_2_2_2_2

New Line.l(r:p1udm11856-p1ulv60154) Units=km Length=0.0122247 bus1=p1udm11856.1.2 bus2=p1ulv60154.1.2 switch=n enabled=y phases=2 Linecode=1P_UG_AL_1/0_Brenau_0_416_0_2_2_2_2

New Line.l(r:p1udm11853-p1udm11856) Units=km Length=0.0183565 bus1=p1udm11853.1.2 bus2=p1udm11856.1.2 switch=n enabled=y phases=2 Linecode=1P_UG_AL_1/0_Brenau_0_416_0_2_2_2_2

New Line.l(r:p1udm11853-p1udt3354lv) Units=km Length=0.00917589 bus1=p1udt3354lv.1.2 bus2=p1udm11853.1.2 switch=n enabled=y phases=2 Linecode=1P_UG_AL_4/0_Sweetbriar_0_416_0_2_2_2_2

New Line.l(r:p1udm11855-p1ulv27623) Units=km Length=0.00598222 bus1=p1udm11855.1.2 bus2=p1ulv27623.1.2 switch=n enabled=y phases=2 Linecode=1P_OH_AL_2/0_Rucina_0_416_0_2_2_2_2

New Line.l(r:p1udm11855-p1udt3354lv) Units=km Length=0.0605884 bus1=p1udt3354lv.1.2 bus2=p1udm11855.1.2 switch=n enabled=y phases=2 Linecode=1P_OH_AL_4/0_Zuzara_0_416_0_2_2_2_2

New Line.l(r:p1udt3859lv-p1ulv9239) Units=km Length=0.014031 bus1=p1udt3859lv.1.2 bus2=p1ulv9239.1.2 switch=n enabled=y phases=2 Linecode=1P_UG_AL_1/0_Brenau_0_416_0_2_2_2_2

New Line.l(r:p1udm13612-p1ulv4204) Units=km Length=0.0144491 bus1=p1udm13612.1.2 bus2=p1ulv4204.1.2 switch=n enabled=y phases=2 Linecode=1P_UG_AL_1/0_Brenau_0_416_0_2_2_2_2

New Line.l(r:p1udm13612-p1ulv28891) Units=km Length=0.0133407 bus1=p1udm13612.1.2 bus2=p1ulv28891.1.2 switch=n enabled=y phases=2 Linecode=1P_UG_AL_1/0_Brenau_0_416_0_2_2_2_2

New Line.l(r:p1udm13616-p1ulv40896) Units=km Length=0.013600600000000001 bus1=p1udm13616.1.2 bus2=p1ulv40896.1.2 switch=n enabled=y phases=2 Linecode=1P_UG_AL_1/0_Brenau_0_416_0_2_2_2_2

New Line.l(r:p1udm13612-p1udm13616) Units=km Length=0.00913107 bus1=p1udm13612.1.2 bus2=p1udm13616.1.2 switch=n enabled=y phases=2 Linecode=1P_UG_AL_1/0_Brenau_0_416_0_2_2_2_2

New Line.l(r:p1udm13612-p1udt3859lv) Units=km Length=0.00912232 bus1=p1udt3859lv.1.2 bus2=p1udm13612.1.2 switch=n enabled=y phases=2 Linecode=1P_UG_AL_4/0_Sweetbriar_0_416_0_2_2_2_2

New Line.l(r:p1udm13615-p1ulv39639) Units=km Length=0.0152546 bus1=p1udm13615.1.2 bus2=p1ulv39639.1.2 switch=n enabled=y phases=2 Linecode=1P_UG_AL_1/0_Brenau_0_416_0_2_2_2_2

New Line.l(r:p1udm13617-p1ulv49074) Units=km Length=0.013746400000000002 bus1=p1udm13617.1.2 bus2=p1ulv49074.1.2 switch=n enabled=y phases=2 Linecode=1P_UG_AL_4/0_Sweetbriar_0_416_0_2_2_2_2

New Line.l(r:p1udm13615-p1udm13617) Units=km Length=0.00913107 bus1=p1udm13615.1.2 bus2=p1udm13617.1.2 switch=n enabled=y phases=2 Linecode=1P_UG_AL_4/0_Sweetbriar_0_416_0_2_2_2_2

New Line.l(r:p1udm13615-p1udt3859lv) Units=km Length=0.00913107 bus1=p1udt3859lv.1.2 bus2=p1udm13615.1.2 switch=n enabled=y phases=2 Linecode=1P_UG_AL_4/0_Sweetbriar_0_416_0_2_2_2_2

New Line.l(r:p1udt3867lv-p1ulv4216) Units=km Length=0.013029 bus1=p1udt3867lv.1.2 bus2=p1ulv4216.1.2 switch=n enabled=y phases=2 Linecode=1P_UG_AL_4/0_Sweetbriar_0_416_0_2_2_2_2

New Line.l(r:p1udm13656-p1ulv15435) Units=km Length=0.0151347 bus1=p1udm13656.1.2 bus2=p1ulv15435.1.2 switch=n enabled=y phases=2 Linecode=1P_UG_AL_1/0_Brenau_0_416_0_2_2_2_2

New Line.l(r:p1udm13656-p1udt3867lv) Units=km Length=0.00937992 bus1=p1udt3867lv.1.2 bus2=p1udm13656.1.2 switch=n enabled=y phases=2 Linecode=1P_UG_AL_1/0_Brenau_0_416_0_2_2_2_2

New Line.l(r:p1udm13657-p1ulv51536) Units=km Length=0.015585400000000001 bus1=p1udm13657.1.2 bus2=p1ulv51536.1.2 switch=n enabled=y phases=2 Linecode=1P_UG_AL_1/0_Brenau_0_416_0_2_2_2_2

New Line.l(r:p1udm13658-p1ulv61401) Units=km Length=0.0143435 bus1=p1udm13658.1.2 bus2=p1ulv61401.1.2 switch=n enabled=y phases=2 Linecode=1P_UG_AL_1/0_Brenau_0_416_0_2_2_2_2

New Line.l(r:p1udm13657-p1udm13658) Units=km Length=0.00937992 bus1=p1udm13657.1.2 bus2=p1udm13658.1.2 switch=n enabled=y phases=2 Linecode=1P_UG_AL_1/0_Brenau_0_416_0_2_2_2_2

New Line.l(r:p1udm13657-p1udt3867lv) Units=km Length=0.00938472 bus1=p1udt3867lv.1.2 bus2=p1udm13657.1.2 switch=n enabled=y phases=2 Linecode=1P_UG_AL_4/0_Sweetbriar_0_416_0_2_2_2_2

New Line.l(r:p1udt4370lv-p1ulv4830) Units=km Length=0.015817 bus1=p1udt4370lv.1.2 bus2=p1ulv4830.1.2 switch=n enabled=y phases=2 Linecode=1P_UG_AL_2/0_Converse_0_416_0_2_2_2_2

New Line.l(r:p1udm15393-p1ulv47207) Units=km Length=0.016916400000000005 bus1=p1udm15393.1.2 bus2=p1ulv47207.1.2 switch=n enabled=y phases=2 Linecode=1P_UG_AL_1/0_Brenau_0_416_0_2_2_2_2

New Line.l(r:p1udm15393-p1udt4370lv) Units=km Length=0.00918062 bus1=p1udt4370lv.1.2 bus2=p1udm15393.1.2 switch=n enabled=y phases=2 Linecode=1P_UG_AL_1/0_Brenau_0_416_0_2_2_2_2

New Line.l(r:p1udm15394-p1ulv51524) Units=km Length=0.0130245 bus1=p1udm15394.1.2 bus2=p1ulv51524.1.2 switch=n enabled=y phases=2 Linecode=1P_UG_AL_1/0_Brenau_0_416_0_2_2_2_2

New Line.l(r:p1udm15394-p1udt4370lv) Units=km Length=0.00917589 bus1=p1udt4370lv.1.2 bus2=p1udm15394.1.2 switch=n enabled=y phases=2 Linecode=1P_UG_AL_1/0_Brenau_0_416_0_2_2_2_2

New Line.l(r:p1udt4377lv-p1ulv4838) Units=km Length=0.0137746 bus1=p1udt4377lv.1.2 bus2=p1ulv4838.1.2 switch=n enabled=y phases=2 Linecode=1P_UG_AL_1/0_Brenau_0_416_0_2_2_2_2

New Line.l(r:p1udt4377lv-p1ulv14221) Units=km Length=0.014374400000000002 bus1=p1udt4377lv.1.2 bus2=p1ulv14221.1.2 switch=n enabled=y phases=2 Linecode=1P_UG_AL_1/0_Brenau_0_416_0_2_2_2_2

New Line.l(r:p1udm15425-p1ulv31381) Units=km Length=0.0157848 bus1=p1udm15425.1.2 bus2=p1ulv31381.1.2 switch=n enabled=y phases=2 Linecode=1P_UG_AL_2/0_Converse_0_416_0_2_2_2_2

New Line.l(r:p1udm15425-p1udt4377lv) Units=km Length=0.00868484 bus1=p1udt4377lv.1.2 bus2=p1udm15425.1.2 switch=n enabled=y phases=2 Linecode=1P_UG_AL_2/0_Converse_0_416_0_2_2_2_2

New Line.l(r:p1udt4845lv-p1ulv5435) Units=km Length=0.00495384 bus1=p1udt4845lv.1.2 bus2=p1ulv5435.1.2 switch=n enabled=y phases=2 Linecode=1P_OH_AL_2/0_Rucina_0_416_0_2_2_2_2

New Line.l(r:p1udm16956-p1ulv55911) Units=km Length=0.0121637 bus1=p1udm16956.1.2 bus2=p1ulv55911.1.2 switch=n enabled=y phases=2 Linecode=1P_UG_AL_1/0_Brenau_0_416_0_2_2_2_2

New Line.l(r:p1udm16956-p1udt4845lv) Units=km Length=0.088984 bus1=p1udt4845lv.1.2 bus2=p1udm16956.1.2 switch=n enabled=y phases=2 Linecode=1P_OH_AL_4/0_Zuzara_0_416_0_2_2_2_2

New Line.l(r:p1udt4846lv-p1ulv5436) Units=km Length=0.014908200000000002 bus1=p1udt4846lv.1.2 bus2=p1ulv5436.1.2 switch=n enabled=y phases=2 Linecode=1P_OH_AL_2/0_Rucina_0_416_0_2_2_2_2

New Line.l(r:p1udm16958-p1ulv27618) Units=km Length=0.0128657 bus1=p1udm16958.1.2 bus2=p1ulv27618.1.2 switch=n enabled=y phases=2 Linecode=1P_OH_AL_2/0_Rucina_0_416_0_2_2_2_2

New Line.l(r:p1udm16958-p1udt4846lv) Units=km Length=0.0148495 bus1=p1udt4846lv.1.2 bus2=p1udm16958.1.2 switch=n enabled=y phases=2 Linecode=1P_OH_AL_2/0_Rucina_0_416_0_2_2_2_2

New Line.l(r:p1udm16959-p1ulv29497) Units=km Length=0.0149662 bus1=p1udm16959.1.2 bus2=p1ulv29497.1.2 switch=n enabled=y phases=2 Linecode=1P_OH_AL_2/0_Rucina_0_416_0_2_2_2_2

New Line.l(r:p1udm16960-p1ulv60757) Units=km Length=0.00824115 bus1=p1udm16960.1.2 bus2=p1ulv60757.1.2 switch=n enabled=y phases=2 Linecode=1P_OH_AL_2/0_Rucina_0_416_0_2_2_2_2

New Line.l(r:p1udm16959-p1udm16960) Units=km Length=0.017057600000000003 bus1=p1udm16959.1.2 bus2=p1udm16960.1.2 switch=n enabled=y phases=2 Linecode=1P_OH_AL_2/0_Rucina_0_416_0_2_2_2_2

New Line.l(r:p1udm16959-p1udt4846lv) Units=km Length=0.0148407 bus1=p1udt4846lv.1.2 bus2=p1udm16959.1.2 switch=n enabled=y phases=2 Linecode=1P_OH_AL_2/0_Rucina_0_416_0_2_2_2_2

New Line.l(r:p1udt4847lv-p1ulv5437) Units=km Length=0.0141573 bus1=p1udt4847lv.1.2 bus2=p1ulv5437.1.2 switch=n enabled=y phases=2 Linecode=1P_OH_AL_2/0_Rucina_0_416_0_2_2_2_2

New Line.l(r:p1udt4847lv-p1ulv45981) Units=km Length=0.0128576 bus1=p1udt4847lv.1.2 bus2=p1ulv45981.1.2 switch=n enabled=y phases=2 Linecode=1P_OH_AL_2/0_Rucina_0_416_0_2_2_2_2

New Line.l(r:p1udm16962-p1ulv28888) Units=km Length=0.013618 bus1=p1udm16962.1.2 bus2=p1ulv28888.1.2 switch=n enabled=y phases=2 Linecode=1P_OH_AL_2/0_Rucina_0_416_0_2_2_2_2

New Line.l(r:p1udm16962-p1ulv52839) Units=km Length=0.0138276 bus1=p1udm16962.1.2 bus2=p1ulv52839.1.2 switch=n enabled=y phases=2 Linecode=1P_OH_AL_2/0_Rucina_0_416_0_2_2_2_2

New Line.l(r:p1udm16962-p1udt4847lv) Units=km Length=0.0163571 bus1=p1udt4847lv.1.2 bus2=p1udm16962.1.2 switch=n enabled=y phases=2 Linecode=1P_OH_AL_2/0_Rucina_0_416_0_2_2_2_2

New Line.l(r:p1udm16965-p1ulv60149) Units=km Length=0.00644665 bus1=p1udm16965.1.2 bus2=p1ulv60149.1.2 switch=n enabled=y phases=2 Linecode=1P_OH_AL_2/0_Rucina_0_416_0_2_2_2_2

New Line.l(r:p1udm16965-p1udt4847lv) Units=km Length=0.0502007 bus1=p1udt4847lv.1.2 bus2=p1udm16965.1.2 switch=n enabled=y phases=2 Linecode=1P_OH_AL_4/0_Zuzara_0_416_0_2_2_2_2

New Line.l(r:p1udt4851lv-p1ulv5443) Units=km Length=0.0141368 bus1=p1udt4851lv.1.2 bus2=p1ulv5443.1.2 switch=n enabled=y phases=2 Linecode=1P_OH_AL_2/0_Rucina_0_416_0_2_2_2_2

New Line.l(r:p1udt4851lv-p1ulv58336) Units=km Length=0.0058901 bus1=p1udt4851lv.1.2 bus2=p1ulv58336.1.2 switch=n enabled=y phases=2 Linecode=1P_OH_AL_2/0_Rucina_0_416_0_2_2_2_2

New Line.l(r:p1udt5376lv-p1ulv6102) Units=km Length=0.0165817 bus1=p1udt5376lv.1.2 bus2=p1ulv6102.1.2 switch=n enabled=y phases=2 Linecode=1P_UG_AL_1/0_Brenau_0_416_0_2_2_2_2

New Line.l(r:p1udt5376lv-p1ulv19963) Units=km Length=0.0144148 bus1=p1udt5376lv.1.2 bus2=p1ulv19963.1.2 switch=n enabled=y phases=2 Linecode=1P_UG_AL_1/0_Brenau_0_416_0_2_2_2_2

New Line.l(r:p1udm18769-p1ulv6103) Units=km Length=0.014384800000000001 bus1=p1udm18769.1.2 bus2=p1ulv6103.1.2 switch=n enabled=y phases=2 Linecode=1P_UG_AL_1/0_Brenau_0_416_0_2_2_2_2

New Line.l(r:p1udm18769-p1udt5376lv) Units=km Length=0.00949124 bus1=p1udt5376lv.1.2 bus2=p1udm18769.1.2 switch=n enabled=y phases=2 Linecode=1P_UG_AL_1/0_Brenau_0_416_0_2_2_2_2

New Line.l(r:p1udm18770-p1ulv16744) Units=km Length=0.0184313 bus1=p1udm18770.1.2 bus2=p1ulv16744.1.2 switch=n enabled=y phases=2 Linecode=1P_UG_AL_1/0_Brenau_0_416_0_2_2_2_2

New Line.l(r:p1udm18770-p1udt5376lv) Units=km Length=0.00949961 bus1=p1udt5376lv.1.2 bus2=p1udm18770.1.2 switch=n enabled=y phases=2 Linecode=1P_UG_AL_1/0_Brenau_0_416_0_2_2_2_2

New Line.l(r:p1udm18772-p1ulv6105) Units=km Length=0.0151635 bus1=p1udm18772.1.2 bus2=p1ulv6105.1.2 switch=n enabled=y phases=2 Linecode=1P_UG_AL_1/0_Brenau_0_416_0_2_2_2_2

New Line.l(r:p1udm18772-p1ulv58335) Units=km Length=0.0156995 bus1=p1udm18772.1.2 bus2=p1ulv58335.1.2 switch=n enabled=y phases=2 Linecode=1P_UG_AL_1/0_Brenau_0_416_0_2_2_2_2

New Line.l(r:p1udm18772-p1udt5377lv) Units=km Length=0.00911899 bus1=p1udt5377lv.1.2 bus2=p1udm18772.1.2 switch=n enabled=y phases=2 Linecode=1P_UG_AL_4/0_Sweetbriar_0_416_0_2_2_2_2

New Line.l(r:p1udm18773-p1ulv38399) Units=km Length=0.0153213 bus1=p1udm18773.1.2 bus2=p1ulv38399.1.2 switch=n enabled=y phases=2 Linecode=1P_UG_AL_1/0_Brenau_0_416_0_2_2_2_2

New Line.l(r:p1udm18773-p1ulv50278) Units=km Length=0.0155633 bus1=p1udm18773.1.2 bus2=p1ulv50278.1.2 switch=n enabled=y phases=2 Linecode=1P_UG_AL_1/0_Brenau_0_416_0_2_2_2_2

New Line.l(r:p1udm18773-p1udt5377lv) Units=km Length=0.00911424 bus1=p1udt5377lv.1.2 bus2=p1udm18773.1.2 switch=n enabled=y phases=2 Linecode=1P_UG_AL_2/0_Converse_0_416_0_2_2_2_2

New Line.l(r:p1udt5378lv-p1ulv6106) Units=km Length=0.0133342 bus1=p1udt5378lv.1.2 bus2=p1ulv6106.1.2 switch=n enabled=y phases=2 Linecode=1P_UG_AL_1/0_Brenau_0_416_0_2_2_2_2

New Line.l(r:p1udt5883lv-p1ulv49651) Units=km Length=0.0132928 bus1=p1udt5883lv.1.2 bus2=p1ulv49651.1.2 switch=n enabled=y phases=2 Linecode=1P_OH_AL_2/0_Rucina_0_416_0_2_2_2_2

New Line.l(r:p1udt5883lv-p1ulv55316) Units=km Length=0.016006 bus1=p1udt5883lv.1.2 bus2=p1ulv55316.1.2 switch=n enabled=y phases=2 Linecode=1P_OH_AL_2/0_Rucina_0_416_0_2_2_2_2

New Line.l(r:p1udm20436-p1ulv6754) Units=km Length=0.0168737 bus1=p1udm20436.1.2 bus2=p1ulv6754.1.2 switch=n enabled=y phases=2 Linecode=1P_OH_AL_2/0_Rucina_0_416_0_2_2_2_2

New Line.l(r:p1udm20436-p1ulv26324) Units=km Length=0.0135711 bus1=p1udm20436.1.2 bus2=p1ulv26324.1.2 switch=n enabled=y phases=2 Linecode=1P_OH_AL_2/0_Rucina_0_416_0_2_2_2_2

New Line.l(r:p1udm20436-p1ulv29496) Units=km Length=0.012988200000000002 bus1=p1udm20436.1.2 bus2=p1ulv29496.1.2 switch=n enabled=y phases=2 Linecode=1P_OH_AL_2/0_Rucina_0_416_0_2_2_2_2

New Line.l(r:p1udm20436-p1udt5883lv) Units=km Length=0.0174869 bus1=p1udt5883lv.1.2 bus2=p1udm20436.1.2 switch=n enabled=y phases=2 Linecode=1P_OH_AL_2/0_Rucina_0_416_0_2_2_2_2

New Line.l(r:p1udm20439-p1ulv46606) Units=km Length=0.0164443 bus1=p1udm20439.1.2 bus2=p1ulv46606.1.2 switch=n enabled=y phases=2 Linecode=1P_OH_AL_2/0_Rucina_0_416_0_2_2_2_2

New Line.l(r:p1udm20439-p1udt5883lv) Units=km Length=0.0174869 bus1=p1udt5883lv.1.2 bus2=p1udm20439.1.2 switch=n enabled=y phases=2 Linecode=1P_OH_AL_2/0_Rucina_0_416_0_2_2_2_2

New Line.l(r:p1udt5885lv-p1ulv6756) Units=km Length=0.025322800000000003 bus1=p1udt5885lv.1.2 bus2=p1ulv6756.1.2 switch=n enabled=y phases=2 Linecode=1P_OH_AL_2/0_Rucina_0_416_0_2_2_2_2

New Line.l(r:p1udt5885lv-p1ulv19337) Units=km Length=0.0233084 bus1=p1udt5885lv.1.2 bus2=p1ulv19337.1.2 switch=n enabled=y phases=2 Linecode=1P_OH_AL_2/0_Rucina_0_416_0_2_2_2_2

New Line.l(r:p1udt5885lv-p1ulv47830) Units=km Length=0.0230158 bus1=p1udt5885lv.1.2 bus2=p1ulv47830.1.2 switch=n enabled=y phases=2 Linecode=1P_OH_AL_2/0_Rucina_0_416_0_2_2_2_2

New Line.l(r:p1udt6794lv-p1ulv7996) Units=km Length=0.015362300000000002 bus1=p1udt6794lv.1.2 bus2=p1ulv7996.1.2 switch=n enabled=y phases=2 Linecode=1P_UG_AL_4/0_Sweetbriar_0_416_0_2_2_2_2

New Line.l(r:p1udt6802lv-p1ulv39649) Units=km Length=0.0144655 bus1=p1udt6802lv.1.2 bus2=p1ulv39649.1.2 switch=n enabled=y phases=2 Linecode=1P_UG_AL_1/0_Brenau_0_416_0_2_2_2_2

New Line.l(r:p1udm23470-p1ulv8007) Units=km Length=0.014518400000000002 bus1=p1udm23470.1.2 bus2=p1ulv8007.1.2 switch=n enabled=y phases=2 Linecode=1P_UG_AL_2/0_Converse_0_416_0_2_2_2_2

New Line.l(r:p1udm23470-p1udt6802lv) Units=km Length=0.00955718 bus1=p1udt6802lv.1.2 bus2=p1udm23470.1.2 switch=n enabled=y phases=2 Linecode=1P_UG_AL_2/0_Converse_0_416_0_2_2_2_2

New Line.l(r:p1udm23472-p1ulv51537) Units=km Length=0.013648900000000002 bus1=p1udm23472.1.2 bus2=p1ulv51537.1.2 switch=n enabled=y phases=2 Linecode=1P_UG_AL_1/0_Brenau_0_416_0_2_2_2_2

New Line.l(r:p1udm23472-p1udt6802lv) Units=km Length=0.00956598 bus1=p1udt6802lv.1.2 bus2=p1udm23472.1.2 switch=n enabled=y phases=2 Linecode=1P_UG_AL_1/0_Brenau_0_416_0_2_2_2_2

New Line.l(r:p1udt7244lv-p1ulv8619) Units=km Length=0.0153232 bus1=p1udt7244lv.1.2 bus2=p1ulv8619.1.2 switch=n enabled=y phases=2 Linecode=1P_OH_AL_2/0_Rucina_0_416_0_2_2_2_2

New Line.l(r:p1udm24848-p1ulv30751) Units=km Length=0.0115799 bus1=p1udm24848.1.2 bus2=p1ulv30751.1.2 switch=n enabled=y phases=2 Linecode=1P_OH_AL_2/0_Rucina_0_416_0_2_2_2_2

New Line.l(r:p1udm24848-p1udt7244lv) Units=km Length=0.017418500000000003 bus1=p1udt7244lv.1.2 bus2=p1udm24848.1.2 switch=n enabled=y phases=2 Linecode=1P_OH_AL_2/0_Rucina_0_416_0_2_2_2_2

New Line.l(r:p1udt7250lv-p1ulv45326) Units=km Length=0.0151305 bus1=p1udt7250lv.1.2 bus2=p1ulv45326.1.2 switch=n enabled=y phases=2 Linecode=1P_OH_AL_2/0_Rucina_0_416_0_2_2_2_2

New Line.l(r:p1udt7250lv-p1ulv63308) Units=km Length=0.0125027 bus1=p1udt7250lv.1.2 bus2=p1ulv63308.1.2 switch=n enabled=y phases=2 Linecode=1P_OH_AL_2/0_Rucina_0_416_0_2_2_2_2

New Line.l(r:p1udm24873-p1ulv8628) Units=km Length=0.0142845 bus1=p1udm24873.1.2 bus2=p1ulv8628.1.2 switch=n enabled=y phases=2 Linecode=1P_OH_AL_2/0_Rucina_0_416_0_2_2_2_2

New Line.l(r:p1udm24873-p1udt7250lv) Units=km Length=0.0182486 bus1=p1udt7250lv.1.2 bus2=p1udm24873.1.2 switch=n enabled=y phases=2 Linecode=1P_OH_AL_2/0_Rucina_0_416_0_2_2_2_2

New Line.l(r:p1udt7251lv-p1ulv19977) Units=km Length=0.0139369 bus1=p1udt7251lv.1.2 bus2=p1ulv19977.1.2 switch=n enabled=y phases=2 Linecode=1P_UG_AL_4/0_Sweetbriar_0_416_0_2_2_2_2

New Line.l(r:p1udm24878-p1ulv23806) Units=km Length=0.0148093 bus1=p1udm24878.1.2 bus2=p1ulv23806.1.2 switch=n enabled=y phases=2 Linecode=1P_UG_AL_1/0_Brenau_0_416_0_2_2_2_2

New Line.l(r:p1udm24880-p1ulv31382) Units=km Length=0.0133099 bus1=p1udm24880.1.2 bus2=p1ulv31382.1.2 switch=n enabled=y phases=2 Linecode=1P_UG_AL_1/0_Brenau_0_416_0_2_2_2_2

New Line.l(r:p1udm24878-p1udm24880) Units=km Length=0.00937992 bus1=p1udm24878.1.2 bus2=p1udm24880.1.2 switch=n enabled=y phases=2 Linecode=1P_UG_AL_1/0_Brenau_0_416_0_2_2_2_2

New Line.l(r:p1udm24878-p1udt7251lv) Units=km Length=0.00938472 bus1=p1udt7251lv.1.2 bus2=p1udm24878.1.2 switch=n enabled=y phases=2 Linecode=1P_UG_AL_2/0_Converse_0_416_0_2_2_2_2

New Line.l(r:p1udm24879-p1ulv26991) Units=km Length=0.013652200000000001 bus1=p1udm24879.1.2 bus2=p1ulv26991.1.2 switch=n enabled=y phases=2 Linecode=1P_UG_AL_2/0_Converse_0_416_0_2_2_2_2

New Line.l(r:p1udm24876-p1ulv8629) Units=km Length=0.0162016 bus1=p1udm24876.1.2 bus2=p1ulv8629.1.2 switch=n enabled=y phases=2 Linecode=1P_UG_AL_1/0_Brenau_0_416_0_2_2_2_2

New Line.l(r:p1udm24876-p1udm24879) Units=km Length=0.00955718 bus1=p1udm24879.1.2 bus2=p1udm24876.1.2 switch=n enabled=y phases=2 Linecode=1P_UG_AL_1/0_Brenau_0_416_0_2_2_2_2

New Line.l(r:p1udm24879-p1udt7251lv) Units=km Length=0.00956598 bus1=p1udt7251lv.1.2 bus2=p1udm24879.1.2 switch=n enabled=y phases=2 Linecode=1P_UG_AL_4/0_Sweetbriar_0_416_0_2_2_2_2

New Line.l(r:p1udt8068lv-p1ulv9867) Units=km Length=0.0125012 bus1=p1udt8068lv.1.2 bus2=p1ulv9867.1.2 switch=n enabled=y phases=2 Linecode=1P_OH_AL_2/0_Rucina_0_416_0_2_2_2_2

New Line.l(r:p1udm27497-p1ulv22488) Units=km Length=0.0134332 bus1=p1udm27497.1.2 bus2=p1ulv22488.1.2 switch=n enabled=y phases=2 Linecode=1P_OH_AL_2/0_Rucina_0_416_0_2_2_2_2

New Line.l(r:p1udm27497-p1udt8068lv) Units=km Length=0.0182486 bus1=p1udt8068lv.1.2 bus2=p1udm27497.1.2 switch=n enabled=y phases=2 Linecode=1P_OH_AL_2/0_Rucina_0_416_0_2_2_2_2

New Line.l(r:p1udt8480lv-p1ulv24438) Units=km Length=0.016779 bus1=p1udt8480lv.1.2 bus2=p1ulv24438.1.2 switch=n enabled=y phases=2 Linecode=1P_OH_AL_2/0_Rucina_0_416_0_2_2_2_2

New Line.l(r:p1udt8480lv-p1ulv51522) Units=km Length=0.014562900000000002 bus1=p1udt8480lv.1.2 bus2=p1ulv51522.1.2 switch=n enabled=y phases=2 Linecode=1P_OH_AL_2/0_Rucina_0_416_0_2_2_2_2

New Line.l(r:p1udm28819-p1ulv10486) Units=km Length=0.0146599 bus1=p1udm28819.1.2 bus2=p1ulv10486.1.2 switch=n enabled=y phases=2 Linecode=1P_OH_AL_2/0_Rucina_0_416_0_2_2_2_2

New Line.l(r:p1udm28819-p1ulv55912) Units=km Length=0.0165454 bus1=p1udm28819.1.2 bus2=p1ulv55912.1.2 switch=n enabled=y phases=2 Linecode=1P_OH_AL_2/0_Rucina_0_416_0_2_2_2_2

New Line.l(r:p1udm28819-p1udt8480lv) Units=km Length=0.0174869 bus1=p1udt8480lv.1.2 bus2=p1udm28819.1.2 switch=n enabled=y phases=2 Linecode=1P_OH_AL_2/0_Rucina_0_416_0_2_2_2_2

New Line.l(r:p1udt8481lv-p1ulv10487) Units=km Length=0.0157068 bus1=p1udt8481lv.1.2 bus2=p1ulv10487.1.2 switch=n enabled=y phases=2 Linecode=1P_UG_AL_1/0_Brenau_0_416_0_2_2_2_2

New Line.l(r:p1udm28824-p1ulv28266) Units=km Length=0.0170484 bus1=p1udm28824.1.2 bus2=p1ulv28266.1.2 switch=n enabled=y phases=2 Linecode=1P_UG_AL_1/0_Brenau_0_416_0_2_2_2_2

New Line.l(r:p1udm28824-p1udt8481lv) Units=km Length=0.00894765 bus1=p1udt8481lv.1.2 bus2=p1udm28824.1.2 switch=n enabled=y phases=2 Linecode=1P_UG_AL_1/0_Brenau_0_416_0_2_2_2_2

New Line.l(r:p1udt8846lv-p1ulv11071) Units=km Length=0.00845157 bus1=p1udt8846lv.1.2 bus2=p1ulv11071.1.2 switch=n enabled=y phases=2 Linecode=1P_OH_AL_2/0_Rucina_0_416_0_2_2_2_2

New Line.l(r:p1udm31123-p1ulv43425) Units=km Length=0.0177979 bus1=p1udm31123.1.2 bus2=p1ulv43425.1.2 switch=n enabled=y phases=2 Linecode=1P_UG_AL_1/0_Brenau_0_416_0_2_2_2_2

New Line.l(r:p1udm31121-p1ulv11714) Units=km Length=0.0173013 bus1=p1udm31121.1.2 bus2=p1ulv11714.1.2 switch=n enabled=y phases=2 Linecode=1P_UG_AL_1/0_Brenau_0_416_0_2_2_2_2

New Line.l(r:p1udm31121-p1ulv56542) Units=km Length=0.0113189 bus1=p1udm31121.1.2 bus2=p1ulv56542.1.2 switch=n enabled=y phases=2 Linecode=1P_UG_AL_1/0_Brenau_0_416_0_2_2_2_2

New Line.l(r:p1udm31121-p1udm31123) Units=km Length=0.00914292 bus1=p1udm31123.1.2 bus2=p1udm31121.1.2 switch=n enabled=y phases=2 Linecode=1P_UG_AL_2/0_Converse_0_416_0_2_2_2_2

New Line.l(r:p1udm31123-p1udt9239lv) Units=km Length=0.00914624 bus1=p1udt9239lv.1.2 bus2=p1udm31123.1.2 switch=n enabled=y phases=2 Linecode=1P_UG_AL_4/0_Sweetbriar_0_416_0_2_2_2_2

New Line.l(r:p1udm31124-p1ulv55919) Units=km Length=0.0179081 bus1=p1udm31124.1.2 bus2=p1ulv55919.1.2 switch=n enabled=y phases=2 Linecode=1P_UG_AL_1/0_Brenau_0_416_0_2_2_2_2

New Line.l(r:p1udm31122-p1ulv39648) Units=km Length=0.0155985 bus1=p1udm31122.1.2 bus2=p1ulv39648.1.2 switch=n enabled=y phases=2 Linecode=1P_UG_AL_1/0_Brenau_0_416_0_2_2_2_2

New Line.l(r:p1udm31122-p1udm31124) Units=km Length=0.0278948 bus1=p1udm31124.1.2 bus2=p1udm31122.1.2 switch=n enabled=y phases=2 Linecode=1P_UG_AL_1/0_Brenau_0_416_0_2_2_2_2

New Line.l(r:p1udm31125-p1ulv55920) Units=km Length=0.0103685 bus1=p1udm31125.1.2 bus2=p1ulv55920.1.2 switch=n enabled=y phases=2 Linecode=1P_UG_AL_1/0_Brenau_0_416_0_2_2_2_2

New Line.l(r:p1udm31124-p1udm31125) Units=km Length=0.008812950000000002 bus1=p1udm31124.1.2 bus2=p1udm31125.1.2 switch=n enabled=y phases=2 Linecode=1P_UG_AL_1/0_Brenau_0_416_0_2_2_2_2

New Line.l(r:p1udm31124-p1udt9239lv) Units=km Length=0.0091377 bus1=p1udt9239lv.1.2 bus2=p1udm31124.1.2 switch=n enabled=y phases=2 Linecode=1P_UG_AL_4/0_Sweetbriar_0_416_0_2_2_2_2
