New Load.load_p1rlv36 conn=wye bus1=p1rlv36.1.2 kV=0.2080002494301389 Vminpu=0.8 Vmaxpu=1.2 model=1 kW=7.450070000000001 kvar=1.5088986300778207 Phases=2

New Load.load_p1rlv39 conn=wye bus1=p1rlv39.1.2 kV=0.2080002494301389 Vminpu=0.8 Vmaxpu=1.2 model=1 kW=5.91006 kvar=1.200088867866603 Phases=2

New Load.load_p1rlv40 conn=wye bus1=p1rlv40.1.2 kV=0.2080002494301389 Vminpu=0.8 Vmaxpu=1.2 model=1 kW=2.36002 kvar=0.7798804312467773 Phases=2

New Load.load_p1rlv44 conn=wye bus1=p1rlv44.1.2 kV=0.2080002494301389 Vminpu=0.8 Vmaxpu=1.2 model=1 kW=4.69005 kvar=0.9498984600139976 Phases=2

New Load.load_p1rlv45 conn=wye bus1=p1rlv45.1.2 kV=0.2080002494301389 Vminpu=0.8 Vmaxpu=1.2 model=1 kW=2.39002 kvar=0.7897940815283019 Phases=2

New Load.load_p1rlv168 conn=wye bus1=p1rlv168.1.2 kV=0.2080002494301389 Vminpu=0.8 Vmaxpu=1.2 model=1 kW=6.58007 kvar=1.3395792527207553 Phases=2

New Load.load_p1rlv169 conn=wye bus1=p1rlv169.1.2 kV=0.2080002494301389 Vminpu=0.8 Vmaxpu=1.2 model=1 kW=4.83005 kvar=0.9807834837952725 Phases=2

New Load.load_p1rlv170 conn=wye bus1=p1rlv170.1.2 kV=0.2080002494301389 Vminpu=0.8 Vmaxpu=1.2 model=1 kW=5.00005 kvar=1.010059068799659 Phases=2

New Load.load_p1rlv173 conn=wye bus1=p1rlv173.1.2 kV=0.2080002494301389 Vminpu=0.8 Vmaxpu=1.2 model=1 kW=7.27007 kvar=1.4800503547572565 Phases=2

New Load.load_p1rlv174 conn=wye bus1=p1rlv174.1.2 kV=0.2080002494301389 Vminpu=0.8 Vmaxpu=1.2 model=1 kW=7.08007 kvar=1.4413699063703937 Phases=2

New Load.load_p1rlv175 conn=wye bus1=p1rlv175.1.2 kV=0.2080002494301389 Vminpu=0.8 Vmaxpu=1.2 model=1 kW=5.74006 kvar=1.1595483362074717 Phases=2

New Load.load_p1rlv176 conn=wye bus1=p1rlv176.1.2 kV=0.2080002494301389 Vminpu=0.8 Vmaxpu=1.2 model=1 kW=5.68006 kvar=1.1504099629613984 Phases=2

New Load.load_p1rlv177 conn=wye bus1=p1rlv177.1.2 kV=0.2080002494301389 Vminpu=0.8 Vmaxpu=1.2 model=1 kW=2.14002 kvar=0.7003483130704755 Phases=2

New Load.load_p1rlv178 conn=wye bus1=p1rlv178.1.2 kV=0.2080002494301389 Vminpu=0.8 Vmaxpu=1.2 model=1 kW=7.14007 kvar=1.449853051033035 Phases=2

New Load.load_p1rlv179 conn=wye bus1=p1rlv179.1.2 kV=0.2080002494301389 Vminpu=0.8 Vmaxpu=1.2 model=1 kW=5.76006 kvar=1.1696300687715029 Phases=2

New Load.load_p1rlv180 conn=wye bus1=p1rlv180.1.2 kV=0.2080002494301389 Vminpu=0.8 Vmaxpu=1.2 model=1 kW=5.83006 kvar=1.180790186840056 Phases=2

New Load.load_p1rlv304 conn=wye bus1=p1rlv304.1.2 kV=0.2080002494301389 Vminpu=0.8 Vmaxpu=1.2 model=1 kW=6.11006 kvar=1.2407005999934042 Phases=2

New Load.load_p1rlv305 conn=wye bus1=p1rlv305.1.2 kV=0.2080002494301389 Vminpu=0.8 Vmaxpu=1.2 model=1 kW=5.420050000000001 kvar=1.1005880935693348 Phases=2

New Load.load_p1rlv306 conn=wye bus1=p1rlv306.1.2 kV=0.2080002494301389 Vminpu=0.8 Vmaxpu=1.2 model=1 kW=5.91006 kvar=1.200088867866603 Phases=2

New Load.load_p1rlv307 conn=wye bus1=p1rlv307.1.2 kV=0.2080002494301389 Vminpu=0.8 Vmaxpu=1.2 model=1 kW=6.00006 kvar=1.2215000586741016 Phases=2

New Load.load_p1rlv308 conn=wye bus1=p1rlv308.1.2 kV=0.2080002494301389 Vminpu=0.8 Vmaxpu=1.2 model=1 kW=2.49002 kvar=0.5095155441111284 Phases=2

New Load.load_p1rlv309 conn=wye bus1=p1rlv309.1.2 kV=0.2080002494301389 Vminpu=0.8 Vmaxpu=1.2 model=1 kW=9.6601 kvar=3.171692082509702 Phases=2

New Load.load_p1rlv310 conn=wye bus1=p1rlv310.1.2 kV=0.2080002494301389 Vminpu=0.8 Vmaxpu=1.2 model=1 kW=3.7500400000000003 kvar=1.2299150661075986 Phases=2

New Load.load_p1rlv313 conn=wye bus1=p1rlv313.1.2 kV=0.2080002494301389 Vminpu=0.8 Vmaxpu=1.2 model=1 kW=1.90002 kvar=0.6298838892551953 Phases=2

New Load.load_p1rlv314 conn=wye bus1=p1rlv314.1.2 kV=0.2080002494301389 Vminpu=0.8 Vmaxpu=1.2 model=1 kW=5.06005 kvar=1.030131593999708 Phases=2

New Load.load_p1rlv315 conn=wye bus1=p1rlv315.1.2 kV=0.2080002494301389 Vminpu=0.8 Vmaxpu=1.2 model=1 kW=3.78004 kvar=0.7695454848435601 Phases=2

New Load.load_p1rlv316 conn=wye bus1=p1rlv316.1.2 kV=0.2080002494301389 Vminpu=0.8 Vmaxpu=1.2 model=1 kW=8.230080000000001 kvar=1.6711890217107062 Phases=2

New Load.load_p1rlv317 conn=wye bus1=p1rlv317.1.2 kV=0.2080002494301389 Vminpu=0.8 Vmaxpu=1.2 model=1 kW=1.09001 kvar=0.22019269518951132 Phases=2

New Load.load_p1rlv319 conn=wye bus1=p1rlv319.1.2 kV=0.2080002494301389 Vminpu=0.8 Vmaxpu=1.2 model=1 kW=5.14005 kvar=1.6894527348246153 Phases=2

New Load.load_p1rlv437 conn=wye bus1=p1rlv437.1.2 kV=0.2080002494301389 Vminpu=0.8 Vmaxpu=1.2 model=1 kW=6.16006 kvar=1.2508535330251045 Phases=2

New Load.load_p1rlv438 conn=wye bus1=p1rlv438.1.2 kV=0.2080002494301389 Vminpu=0.8 Vmaxpu=1.2 model=1 kW=2.08002 kvar=0.4201844110128231 Phases=2

New Load.load_p1rlv439 conn=wye bus1=p1rlv439.1.2 kV=0.2080002494301389 Vminpu=0.8 Vmaxpu=1.2 model=1 kW=4.880050000000001 kvar=0.9909364168269728 Phases=2

New Load.load_p1rlv440 conn=wye bus1=p1rlv440.1.2 kV=0.2080002494301389 Vminpu=0.8 Vmaxpu=1.2 model=1 kW=1.60002 kvar=0.529865022157608 Phases=2

New Load.load_p1rlv441 conn=wye bus1=p1rlv441.1.2 kV=0.2080002494301389 Vminpu=0.8 Vmaxpu=1.2 model=1 kW=5.49005 kvar=1.1090438676940364 Phases=2

New Load.load_p1rlv444 conn=wye bus1=p1rlv444.1.2 kV=0.2080002494301389 Vminpu=0.8 Vmaxpu=1.2 model=1 kW=5.21005 kvar=1.0606687900945995 Phases=2

New Load.load_p1rlv557 conn=wye bus1=p1rlv557.1.2 kV=0.2080002494301389 Vminpu=0.8 Vmaxpu=1.2 model=1 kW=5.53006 kvar=1.1200297390827405 Phases=2

New Load.load_p1rlv558 conn=wye bus1=p1rlv558.1.2 kV=0.2080002494301389 Vminpu=0.8 Vmaxpu=1.2 model=1 kW=4.94005 kvar=1.0005321664784275 Phases=2

New Load.load_p1rlv559 conn=wye bus1=p1rlv559.1.2 kV=0.2080002494301389 Vminpu=0.8 Vmaxpu=1.2 model=1 kW=5.53006 kvar=1.1200297390827405 Phases=2

New Load.load_p1rlv560 conn=wye bus1=p1rlv560.1.2 kV=0.2080002494301389 Vminpu=0.8 Vmaxpu=1.2 model=1 kW=8.27008 kvar=1.679311368136066 Phases=2

New Load.load_p1rlv561 conn=wye bus1=p1rlv561.1.2 kV=0.2080002494301389 Vminpu=0.8 Vmaxpu=1.2 model=1 kW=5.420050000000001 kvar=1.1005880935693348 Phases=2

New Load.load_p1rlv563 conn=wye bus1=p1rlv563.1.2 kV=0.2080002494301389 Vminpu=0.8 Vmaxpu=1.2 model=1 kW=12.3201 kvar=2.5017030048769966 Phases=2

New Load.load_p1rlv564 conn=wye bus1=p1rlv564.1.2 kV=0.2080002494301389 Vminpu=0.8 Vmaxpu=1.2 model=1 kW=3.2800300000000004 kvar=0.6694632252334703 Phases=2

New Load.load_p1rlv566 conn=wye bus1=p1rlv566.1.2 kV=0.2080002494301389 Vminpu=0.8 Vmaxpu=1.2 model=1 kW=4.78005 kvar=0.9706305507635722 Phases=2

New Load.load_p1rlv567 conn=wye bus1=p1rlv567.1.2 kV=0.2080002494301389 Vminpu=0.8 Vmaxpu=1.2 model=1 kW=5.87006 kvar=1.1888915798743651 Phases=2

New Load.load_p1rlv568 conn=wye bus1=p1rlv568.1.2 kV=0.2080002494301389 Vminpu=0.8 Vmaxpu=1.2 model=1 kW=4.19004 kvar=1.3801709920271097 Phases=2

New Load.load_p1rlv569 conn=wye bus1=p1rlv569.1.2 kV=0.2080002494301389 Vminpu=0.8 Vmaxpu=1.2 model=1 kW=2.04002 kvar=0.4099544614599067 Phases=2

New Load.load_p1rlv572 conn=wye bus1=p1rlv572.1.2.3 kV=0.48 Vminpu=0.8 Vmaxpu=1.2 model=1 kW=19.2502 kvar=6.327234761514152 Phases=3

New Load.load_p1rlv699 conn=wye bus1=p1rlv699.1.2 kV=0.2080002494301389 Vminpu=0.8 Vmaxpu=1.2 model=1 kW=3.48003 kvar=0.71028378024263 Phases=2

New Load.load_p1rlv700 conn=wye bus1=p1rlv700.1.2 kV=0.2080002494301389 Vminpu=0.8 Vmaxpu=1.2 model=1 kW=5.93006 kvar=1.2010436694258284 Phases=2

New Load.load_p1rlv701 conn=wye bus1=p1rlv701.1.2 kV=0.2080002494301389 Vminpu=0.8 Vmaxpu=1.2 model=1 kW=2.00002 kvar=0.4102885228098566 Phases=2

New Load.load_p1rlv704 conn=wye bus1=p1rlv704.1.2 kV=0.2080002494301389 Vminpu=0.8 Vmaxpu=1.2 model=1 kW=8.56009 kvar=1.7382004103065338 Phases=2

New Load.load_p1rlv705 conn=wye bus1=p1rlv705.1.2 kV=0.2080002494301389 Vminpu=0.8 Vmaxpu=1.2 model=1 kW=7.13007 kvar=1.4515489717353578 Phases=2

New Load.load_p1rlv706 conn=wye bus1=p1rlv706.1.2 kV=0.2080002494301389 Vminpu=0.8 Vmaxpu=1.2 model=1 kW=3.95004 kvar=1.2997165181010157 Phases=2

New Load.load_p1rlv707 conn=wye bus1=p1rlv707.1.2 kV=0.2080002494301389 Vminpu=0.8 Vmaxpu=1.2 model=1 kW=5.71006 kvar=1.8808553557327181 Phases=2

New Load.load_p1rlv711 conn=wye bus1=p1rlv711.1.2 kV=0.2080002494301389 Vminpu=0.8 Vmaxpu=1.2 model=1 kW=5.090050000000001 kvar=1.6694033082956403 Phases=2

New Load.load_p1rlv712 conn=wye bus1=p1rlv712.1.2 kV=0.2080002494301389 Vminpu=0.8 Vmaxpu=1.2 model=1 kW=5.40005 kvar=1.0993492384814623 Phases=2

New Load.load_p1rlv713 conn=wye bus1=p1rlv713.1.2 kV=0.2080002494301389 Vminpu=0.8 Vmaxpu=1.2 model=1 kW=1.57002 kvar=0.5199301771777152 Phases=2

New Load.load_p1rlv714 conn=wye bus1=p1rlv714.1.2 kV=0.2080002494301389 Vminpu=0.8 Vmaxpu=1.2 model=1 kW=5.75006 kvar=1.1706047318492825 Phases=2

New Load.load_p1rlv715 conn=wye bus1=p1rlv715.1.2 kV=0.2080002494301389 Vminpu=0.8 Vmaxpu=1.2 model=1 kW=7.04007 kvar=2.308958880292509 Phases=2

New Load.load_p1rlv716 conn=wye bus1=p1rlv716.1.2 kV=0.2080002494301389 Vminpu=0.8 Vmaxpu=1.2 model=1 kW=5.70006 kvar=1.1604256664843182 Phases=2

New Load.load_p1rlv855 conn=wye bus1=p1rlv855.1.2 kV=0.2080002494301389 Vminpu=0.8 Vmaxpu=1.2 model=1 kW=5.420050000000001 kvar=1.1005880935693348 Phases=2

New Load.load_p1rlv856 conn=wye bus1=p1rlv856.1.2 kV=0.2080002494301389 Vminpu=0.8 Vmaxpu=1.2 model=1 kW=1.68002 kvar=0.5498075592399418 Phases=2

New Load.load_p1rlv857 conn=wye bus1=p1rlv857.1.2 kV=0.2080002494301389 Vminpu=0.8 Vmaxpu=1.2 model=1 kW=2.36002 kvar=0.4804559568524403 Phases=2

New Load.load_p1rlv859 conn=wye bus1=p1rlv859.1.2 kV=0.2080002494301389 Vminpu=0.8 Vmaxpu=1.2 model=1 kW=1.85002 kvar=0.6100393839361101 Phases=2

New Load.load_p1rlv860 conn=wye bus1=p1rlv860.1.2 kV=0.2080002494301389 Vminpu=0.8 Vmaxpu=1.2 model=1 kW=2.01002 kvar=0.659948087461429 Phases=2

New Load.load_p1rlv986 conn=wye bus1=p1rlv986.1.2 kV=0.2080002494301389 Vminpu=0.8 Vmaxpu=1.2 model=1 kW=4.32004 kvar=0.8794793907851697 Phases=2

New Load.load_p1rlv987 conn=wye bus1=p1rlv987.1.2 kV=0.2080002494301389 Vminpu=0.8 Vmaxpu=1.2 model=1 kW=2.13002 kvar=0.4302849006959229 Phases=2

New Load.load_p1rlv992 conn=wye bus1=p1rlv992.1.2 kV=0.2080002494301389 Vminpu=0.8 Vmaxpu=1.2 model=1 kW=5.59006 kvar=1.1292468671581726 Phases=2

New Load.load_p1rlv993 conn=wye bus1=p1rlv993.1.2 kV=0.2080002494301389 Vminpu=0.8 Vmaxpu=1.2 model=1 kW=3.78004 kvar=0.7695454848435601 Phases=2

New Load.load_p1rlv994 conn=wye bus1=p1rlv994.1.2 kV=0.2080002494301389 Vminpu=0.8 Vmaxpu=1.2 model=1 kW=5.39005 kvar=1.088842888327837 Phases=2

New Load.load_p1rlv995 conn=wye bus1=p1rlv995.1.2 kV=0.2080002494301389 Vminpu=0.8 Vmaxpu=1.2 model=1 kW=0.560006 kvar=0.1800595900806027 Phases=2

New Load.load_p1rlv996 conn=wye bus1=p1rlv996.1.2 kV=0.2080002494301389 Vminpu=0.8 Vmaxpu=1.2 model=1 kW=5.28005 kvar=1.069394007270052 Phases=2

New Load.load_p1rlv998 conn=wye bus1=p1rlv998.1.2 kV=0.2080002494301389 Vminpu=0.8 Vmaxpu=1.2 model=1 kW=2.34002 kvar=0.7699574299720354 Phases=2

New Load.load_p1rlv1004 conn=wye bus1=p1rlv1004.1.2 kV=0.2080002494301389 Vminpu=0.8 Vmaxpu=1.2 model=1 kW=3.08003 kvar=1.010169305144315 Phases=2

New Load.load_p1rlv1005 conn=wye bus1=p1rlv1005.1.2 kV=0.2080002494301389 Vminpu=0.8 Vmaxpu=1.2 model=1 kW=6.350060000000001 kvar=1.2894346785455655 Phases=2

New Load.load_p1rlv1111 conn=wye bus1=p1rlv1111.1.2 kV=0.2080002494301389 Vminpu=0.8 Vmaxpu=1.2 model=1 kW=5.93006 kvar=1.2010436694258284 Phases=2

New Load.load_p1rlv1112 conn=wye bus1=p1rlv1112.1.2 kV=0.2080002494301389 Vminpu=0.8 Vmaxpu=1.2 model=1 kW=5.20005 kvar=1.061344635376904 Phases=2

New Load.load_p1rlv1113 conn=wye bus1=p1rlv1113.1.2 kV=0.2080002494301389 Vminpu=0.8 Vmaxpu=1.2 model=1 kW=5.600060000000001 kvar=1.1400675357543906 Phases=2

New Load.load_p1rlv1114 conn=wye bus1=p1rlv1114.1.2 kV=0.2080002494301389 Vminpu=0.8 Vmaxpu=1.2 model=1 kW=6.24006 kvar=1.270359572425928 Phases=2

New Load.load_p1rlv1115 conn=wye bus1=p1rlv1115.1.2 kV=0.2080002494301389 Vminpu=0.8 Vmaxpu=1.2 model=1 kW=6.16006 kvar=1.2508535330251045 Phases=2

New Load.load_p1rlv1116 conn=wye bus1=p1rlv1116.1.2 kV=0.2080002494301389 Vminpu=0.8 Vmaxpu=1.2 model=1 kW=4.86005 kvar=0.9894153325398525 Phases=2

New Load.load_p1rlv1117 conn=wye bus1=p1rlv1117.1.2 kV=0.2080002494301389 Vminpu=0.8 Vmaxpu=1.2 model=1 kW=5.74006 kvar=1.1685689187762893 Phases=2

New Load.load_p1rlv1119 conn=wye bus1=p1rlv1119.1.2 kV=0.2080002494301389 Vminpu=0.8 Vmaxpu=1.2 model=1 kW=1.00001 kvar=0.3301046661521844 Phases=2

New Load.load_p1rlv1120 conn=wye bus1=p1rlv1120.1.2 kV=0.2080002494301389 Vminpu=0.8 Vmaxpu=1.2 model=1 kW=6.12006 kvar=1.239525286338795 Phases=2

New Load.load_p1rlv1122 conn=wye bus1=p1rlv1122.1.2 kV=0.2080002494301389 Vminpu=0.8 Vmaxpu=1.2 model=1 kW=5.41005 kvar=1.101385051554455 Phases=2

New Load.load_p1rlv1123 conn=wye bus1=p1rlv1123.1.2 kV=0.2080002494301389 Vminpu=0.8 Vmaxpu=1.2 model=1 kW=6.13006 kvar=1.2511622571972472 Phases=2

New Load.load_p1rlv1124 conn=wye bus1=p1rlv1124.1.2 kV=0.2080002494301389 Vminpu=0.8 Vmaxpu=1.2 model=1 kW=3.14003 kvar=1.0298477362987708 Phases=2

New Load.load_p1rlv1233 conn=wye bus1=p1rlv1233.1.2 kV=0.2080002494301389 Vminpu=0.8 Vmaxpu=1.2 model=1 kW=5.600060000000001 kvar=1.1400675357543906 Phases=2

New Load.load_p1rlv1234 conn=wye bus1=p1rlv1234.1.2 kV=0.2080002494301389 Vminpu=0.8 Vmaxpu=1.2 model=1 kW=5.08005 kvar=1.0288870420985081 Phases=2

New Load.load_p1rlv1235 conn=wye bus1=p1rlv1235.1.2 kV=0.2080002494301389 Vminpu=0.8 Vmaxpu=1.2 model=1 kW=7.53008 kvar=1.529047959266903 Phases=2

New Load.load_p1rlv1236 conn=wye bus1=p1rlv1236.1.2 kV=0.2080002494301389 Vminpu=0.8 Vmaxpu=1.2 model=1 kW=5.71006 kvar=1.1594771357398026 Phases=2

New Load.load_p1rlv1239 conn=wye bus1=p1rlv1239.1.2 kV=0.2080002494301389 Vminpu=0.8 Vmaxpu=1.2 model=1 kW=6.66007 kvar=1.348896117650222 Phases=2

New Load.load_p1rlv1241 conn=wye bus1=p1rlv1241.1.2 kV=0.2080002494301389 Vminpu=0.8 Vmaxpu=1.2 model=1 kW=5.18005 kvar=1.0491405246842802 Phases=2

New Load.load_p1rlv1242 conn=wye bus1=p1rlv1242.1.2 kV=0.2080002494301389 Vminpu=0.8 Vmaxpu=1.2 model=1 kW=9.200090000000001 kvar=1.8681579531122967 Phases=2

New Load.load_p1rlv1379 conn=wye bus1=p1rlv1379.1.2 kV=0.2080002494301389 Vminpu=0.8 Vmaxpu=1.2 model=1 kW=5.420050000000001 kvar=1.1005880935693348 Phases=2

New Load.load_p1rlv1386 conn=wye bus1=p1rlv1386.1.2 kV=0.2080002494301389 Vminpu=0.8 Vmaxpu=1.2 model=1 kW=5.850060000000001 kvar=1.19096286257921 Phases=2

New Load.load_p1rlv1387 conn=wye bus1=p1rlv1387.1.2 kV=0.2080002494301389 Vminpu=0.8 Vmaxpu=1.2 model=1 kW=4.76005 kvar=0.9690572018099246 Phases=2

New Load.load_p1rlv1388 conn=wye bus1=p1rlv1388.1.2 kV=0.2080002494301389 Vminpu=0.8 Vmaxpu=1.2 model=1 kW=5.340050000000001 kvar=1.089919023883316 Phases=2

New Load.load_p1rlv1389 conn=wye bus1=p1rlv1389.1.2 kV=0.2080002494301389 Vminpu=0.8 Vmaxpu=1.2 model=1 kW=5.340050000000001 kvar=1.078742398644737 Phases=2

New Load.load_p1rlv1390 conn=wye bus1=p1rlv1390.1.2 kV=0.2080002494301389 Vminpu=0.8 Vmaxpu=1.2 model=1 kW=6.40006 kvar=1.2995876115772655 Phases=2

New Load.load_p1rlv1395 conn=wye bus1=p1rlv1395.1.2 kV=0.2080002494301389 Vminpu=0.8 Vmaxpu=1.2 model=1 kW=5.26005 kvar=1.730760668508989 Phases=2

New Load.load_p1rlv1396 conn=wye bus1=p1rlv1396.1.2 kV=0.2080002494301389 Vminpu=0.8 Vmaxpu=1.2 model=1 kW=2.04002 kvar=0.6697979609073863 Phases=2

New Load.load_p1rlv1397 conn=wye bus1=p1rlv1397.1.2 kV=0.2080002494301389 Vminpu=0.8 Vmaxpu=1.2 model=1 kW=5.94006 kvar=1.2092851802361448 Phases=2

New Load.load_p1rlv1398 conn=wye bus1=p1rlv1398.1.2 kV=0.2080002494301389 Vminpu=0.8 Vmaxpu=1.2 model=1 kW=8.22008 kvar=1.6691584351043662 Phases=2

New Load.load_p1rlv1399 conn=wye bus1=p1rlv1399.1.2 kV=0.2080002494301389 Vminpu=0.8 Vmaxpu=1.2 model=1 kW=0.620006 kvar=0.20002114980484142 Phases=2

New Load.load_p1rlv1527 conn=wye bus1=p1rlv1527.1.2 kV=0.2080002494301389 Vminpu=0.8 Vmaxpu=1.2 model=1 kW=1.15001 kvar=0.3800265653418643 Phases=2

New Load.load_p1rlv1528 conn=wye bus1=p1rlv1528.1.2 kV=0.2080002494301389 Vminpu=0.8 Vmaxpu=1.2 model=1 kW=1.84002 kvar=0.6002024326231461 Phases=2

New Load.load_p1rlv1531 conn=wye bus1=p1rlv1531.1.2 kV=0.2080002494301389 Vminpu=0.8 Vmaxpu=1.2 model=1 kW=3.46003 kvar=1.1397106083816768 Phases=2

New Load.load_p1rlv1532 conn=wye bus1=p1rlv1532.1.2 kV=0.2080002494301389 Vminpu=0.8 Vmaxpu=1.2 model=1 kW=7.90008 kvar=1.600041327062053 Phases=2

New Load.load_p1rlv1533 conn=wye bus1=p1rlv1533.1.2 kV=0.2080002494301389 Vminpu=0.8 Vmaxpu=1.2 model=1 kW=1.57002 kvar=0.3196267240860112 Phases=2

New Load.load_p1rlv1534 conn=wye bus1=p1rlv1534.1.2 kV=0.2080002494301389 Vminpu=0.8 Vmaxpu=1.2 model=1 kW=4.93005 kvar=1.0010893498586726 Phases=2

New Load.load_p1rlv1639 conn=wye bus1=p1rlv1639.1.2 kV=0.2080002494301389 Vminpu=0.8 Vmaxpu=1.2 model=1 kW=8.31008 kvar=1.6917769501615778 Phases=2

New Load.load_p1rlv1641 conn=wye bus1=p1rlv1641.1.2 kV=0.2080002494301389 Vminpu=0.8 Vmaxpu=1.2 model=1 kW=5.92006 kvar=1.1990183211672512 Phases=2

New Load.load_p1rlv1642 conn=wye bus1=p1rlv1642.1.2 kV=0.2080002494301389 Vminpu=0.8 Vmaxpu=1.2 model=1 kW=1.44001 kvar=0.2901383334885957 Phases=2

New Load.load_p1rlv1643 conn=wye bus1=p1rlv1643.1.2 kV=0.2080002494301389 Vminpu=0.8 Vmaxpu=1.2 model=1 kW=7.39007 kvar=1.5006177161915362 Phases=2

New Load.load_p1rlv1644 conn=wye bus1=p1rlv1644.1.2 kV=0.2080002494301389 Vminpu=0.8 Vmaxpu=1.2 model=1 kW=2.58003 kvar=0.5198336154266855 Phases=2

New Load.load_p1rlv1645 conn=wye bus1=p1rlv1645.1.2 kV=0.2080002494301389 Vminpu=0.8 Vmaxpu=1.2 model=1 kW=6.700070000000001 kvar=1.3605072403540732 Phases=2

New Load.load_p1rlv1646 conn=wye bus1=p1rlv1646.1.2 kV=0.2080002494301389 Vminpu=0.8 Vmaxpu=1.2 model=1 kW=5.67006 kvar=1.1513547893144422 Phases=2

New Load.load_p1rlv1649 conn=wye bus1=p1rlv1649.1.2 kV=0.2080002494301389 Vminpu=0.8 Vmaxpu=1.2 model=1 kW=8.11008 kvar=2.6714058001878795 Phases=2

New Load.load_p1rlv1653 conn=wye bus1=p1rlv1653.1.2 kV=0.2080002494301389 Vminpu=0.8 Vmaxpu=1.2 model=1 kW=5.72006 kvar=1.1585113559957074 Phases=2

New Load.load_p1rlv1654 conn=wye bus1=p1rlv1654.1.2 kV=0.2080002494301389 Vminpu=0.8 Vmaxpu=1.2 model=1 kW=6.18006 kvar=1.2484326454187498 Phases=2

New Load.load_p1rlv1771 conn=wye bus1=p1rlv1771.1.2 kV=0.2080002494301389 Vminpu=0.8 Vmaxpu=1.2 model=1 kW=4.10004 kvar=0.8304008874096844 Phases=2

New Load.load_p1rlv1774 conn=wye bus1=p1rlv1774.1.2 kV=0.2080002494301389 Vminpu=0.8 Vmaxpu=1.2 model=1 kW=5.810060000000001 kvar=1.1797830018032032 Phases=2

New Load.load_p1rlv1775 conn=wye bus1=p1rlv1775.1.2 kV=0.2080002494301389 Vminpu=0.8 Vmaxpu=1.2 model=1 kW=5.50006 kvar=1.119709405024463 Phases=2

New Load.load_p1rlv1776 conn=wye bus1=p1rlv1776.1.2 kV=0.2080002494301389 Vminpu=0.8 Vmaxpu=1.2 model=1 kW=6.91007 kvar=1.399529824114652 Phases=2

New Load.load_p1rlv1781 conn=wye bus1=p1rlv1781.1.2 kV=0.2080002494301389 Vminpu=0.8 Vmaxpu=1.2 model=1 kW=7.06007 kvar=1.42991004799331 Phases=2

New Load.load_p1rlv1782 conn=wye bus1=p1rlv1782.1.2 kV=0.2080002494301389 Vminpu=0.8 Vmaxpu=1.2 model=1 kW=7.27007 kvar=1.4800503547572565 Phases=2

New Load.load_p1rlv1783 conn=wye bus1=p1rlv1783.1.2 kV=0.2080002494301389 Vminpu=0.8 Vmaxpu=1.2 model=1 kW=5.08005 kvar=1.0288870420985081 Phases=2

New Load.load_p1rlv1910 conn=wye bus1=p1rlv1910.1.2 kV=0.2080002494301389 Vminpu=0.8 Vmaxpu=1.2 model=1 kW=5.27005 kvar=1.0701292944742342 Phases=2

New Load.load_p1rlv1911 conn=wye bus1=p1rlv1911.1.2 kV=0.2080002494301389 Vminpu=0.8 Vmaxpu=1.2 model=1 kW=4.93005 kvar=1.0010893498586726 Phases=2

New Load.load_p1rlv1916 conn=wye bus1=p1rlv1916.1.2 kV=0.2080002494301389 Vminpu=0.8 Vmaxpu=1.2 model=1 kW=2.84003 kvar=0.9304458498912929 Phases=2

New Load.load_p1rlv1917 conn=wye bus1=p1rlv1917.1.2 kV=0.2080002494301389 Vminpu=0.8 Vmaxpu=1.2 model=1 kW=5.18005 kvar=1.7007612314576845 Phases=2

New Load.load_p1rlv1920 conn=wye bus1=p1rlv1920.1.2 kV=0.2080002494301389 Vminpu=0.8 Vmaxpu=1.2 model=1 kW=6.63007 kvar=1.349758318085719 Phases=2

New Load.load_p1rlv1921 conn=wye bus1=p1rlv1921.1.2 kV=0.2080002494301389 Vminpu=0.8 Vmaxpu=1.2 model=1 kW=5.35005 kvar=1.0891701731164982 Phases=2

New Load.load_p1rlv1922 conn=wye bus1=p1rlv1922.1.2 kV=0.2080002494301389 Vminpu=0.8 Vmaxpu=1.2 model=1 kW=5.59006 kvar=1.839346770963272 Phases=2

New Load.load_p1rlv2045 conn=wye bus1=p1rlv2045.1.2 kV=0.2080002494301389 Vminpu=0.8 Vmaxpu=1.2 model=1 kW=5.890060000000001 kvar=1.199106114871181 Phases=2

New Load.load_p1rlv2046 conn=wye bus1=p1rlv2046.1.2 kV=0.2080002494301389 Vminpu=0.8 Vmaxpu=1.2 model=1 kW=4.95005 kvar=0.999958579116559 Phases=2

New Load.load_p1rlv2047 conn=wye bus1=p1rlv2047.1.2 kV=0.2080002494301389 Vminpu=0.8 Vmaxpu=1.2 model=1 kW=1.18001 kvar=0.24022797842622015 Phases=2

New Load.load_p1rlv2050 conn=wye bus1=p1rlv2050.1.2 kV=0.2080002494301389 Vminpu=0.8 Vmaxpu=1.2 model=1 kW=6.66007 kvar=1.348896117650222 Phases=2

New Load.load_p1rlv2054 conn=wye bus1=p1rlv2054.1.2 kV=0.2080002494301389 Vminpu=0.8 Vmaxpu=1.2 model=1 kW=2.5300300000000004 kvar=0.5097594376956769 Phases=2

New Load.load_p1rlv2055 conn=wye bus1=p1rlv2055.1.2 kV=0.2080002494301389 Vminpu=0.8 Vmaxpu=1.2 model=1 kW=8.13008 kvar=1.6508831556473056 Phases=2

New Load.load_p1rlv2056 conn=wye bus1=p1rlv2056.1.2 kV=0.2080002494301389 Vminpu=0.8 Vmaxpu=1.2 model=1 kW=3.16003 kvar=0.6400161257551694 Phases=2

New Load.load_p1rlv2177 conn=wye bus1=p1rlv2177.1.2 kV=0.2080002494301389 Vminpu=0.8 Vmaxpu=1.2 model=1 kW=1.43001 kvar=0.2903759152932325 Phases=2

New Load.load_p1rlv2178 conn=wye bus1=p1rlv2178.1.2 kV=0.2080002494301389 Vminpu=0.8 Vmaxpu=1.2 model=1 kW=6.07006 kvar=1.2293985450459088 Phases=2

New Load.load_p1rlv2180 conn=wye bus1=p1rlv2180.1.2 kV=0.2080002494301389 Vminpu=0.8 Vmaxpu=1.2 model=1 kW=4.48004 kvar=0.9097109219867646 Phases=2

New Load.load_p1rlv2181 conn=wye bus1=p1rlv2181.1.2 kV=0.2080002494301389 Vminpu=0.8 Vmaxpu=1.2 model=1 kW=3.38003 kvar=0.6898735027380501 Phases=2

New Load.load_p1rlv2185 conn=wye bus1=p1rlv2185.1.2 kV=0.2080002494301389 Vminpu=0.8 Vmaxpu=1.2 model=1 kW=4.19004 kvar=0.8508239104029033 Phases=2

New Load.load_p1rlv2187 conn=wye bus1=p1rlv2187.1.2.3 kV=0.48 Vminpu=0.8 Vmaxpu=1.2 model=1 kW=56.580600000000004 kvar=11.489180853868344 Phases=3

New Load.load_p1rlv2332 conn=wye bus1=p1rlv2332.1.2 kV=0.2080002494301389 Vminpu=0.8 Vmaxpu=1.2 model=1 kW=5.36005 kvar=1.091205986189491 Phases=2

New Load.load_p1rlv2333 conn=wye bus1=p1rlv2333.1.2 kV=0.2080002494301389 Vminpu=0.8 Vmaxpu=1.2 model=1 kW=5.68006 kvar=1.1504099629613984 Phases=2

New Load.load_p1rlv2334 conn=wye bus1=p1rlv2334.1.2 kV=0.2080002494301389 Vminpu=0.8 Vmaxpu=1.2 model=1 kW=5.30005 kvar=1.0789911077515342 Phases=2

New Load.load_p1rlv2335 conn=wye bus1=p1rlv2335.1.2 kV=0.2080002494301389 Vminpu=0.8 Vmaxpu=1.2 model=1 kW=5.340050000000001 kvar=1.078742398644737 Phases=2

New Load.load_p1rlv2336 conn=wye bus1=p1rlv2336.1.2 kV=0.2080002494301389 Vminpu=0.8 Vmaxpu=1.2 model=1 kW=1.28001 kvar=0.25991711619813185 Phases=2

New Load.load_p1rlv2340 conn=wye bus1=p1rlv2340.1.2 kV=0.2080002494301389 Vminpu=0.8 Vmaxpu=1.2 model=1 kW=5.170050000000001 kvar=1.0498234284108339 Phases=2

New Load.load_p1rlv2341 conn=wye bus1=p1rlv2341.1.2 kV=0.2080002494301389 Vminpu=0.8 Vmaxpu=1.2 model=1 kW=6.13006 kvar=1.2511622571972472 Phases=2

New Load.load_p1rlv2463 conn=wye bus1=p1rlv2463.1.2 kV=0.2080002494301389 Vminpu=0.8 Vmaxpu=1.2 model=1 kW=6.15006 kvar=1.2488229464187643 Phases=2

New Load.load_p1rlv2464 conn=wye bus1=p1rlv2464.1.2 kV=0.2080002494301389 Vminpu=0.8 Vmaxpu=1.2 model=1 kW=5.600060000000001 kvar=1.1400675357543906 Phases=2

New Load.load_p1rlv2467 conn=wye bus1=p1rlv2467.1.2 kV=0.2080002494301389 Vminpu=0.8 Vmaxpu=1.2 model=1 kW=6.22006 kvar=1.2597787689245672 Phases=2

New Load.load_p1rlv2468 conn=wye bus1=p1rlv2468.1.2 kV=0.2080002494301389 Vminpu=0.8 Vmaxpu=1.2 model=1 kW=1.45001 kvar=0.48018748564315017 Phases=2

New Load.load_p1rlv2469 conn=wye bus1=p1rlv2469.1.2 kV=0.2080002494301389 Vminpu=0.8 Vmaxpu=1.2 model=1 kW=2.42002 kvar=0.49013832927219847 Phases=2

New Load.load_p1rlv2470 conn=wye bus1=p1rlv2470.1.2 kV=0.2080002494301389 Vminpu=0.8 Vmaxpu=1.2 model=1 kW=2.63003 kvar=0.8700359824505316 Phases=2

New Load.load_p1rlv2471 conn=wye bus1=p1rlv2471.1.2 kV=0.2080002494301389 Vminpu=0.8 Vmaxpu=1.2 model=1 kW=5.35005 kvar=1.7603741627088179 Phases=2

New Load.load_p1rlv2590 conn=wye bus1=p1rlv2590.1.2 kV=0.2080002494301389 Vminpu=0.8 Vmaxpu=1.2 model=1 kW=6.20006 kvar=1.2589758794504644 Phases=2

New Load.load_p1rlv2592 conn=wye bus1=p1rlv2592.1.2 kV=0.2080002494301389 Vminpu=0.8 Vmaxpu=1.2 model=1 kW=5.70006 kvar=1.1604256664843182 Phases=2

New Load.load_p1rlv2595 conn=wye bus1=p1rlv2595.1.2 kV=0.2080002494301389 Vminpu=0.8 Vmaxpu=1.2 model=1 kW=4.69005 kvar=0.9498984600139976 Phases=2

New Load.load_p1rlv2596 conn=wye bus1=p1rlv2596.1.2 kV=0.2080002494301389 Vminpu=0.8 Vmaxpu=1.2 model=1 kW=6.29006 kvar=1.280538637790892 Phases=2

New Load.load_p1rlv2597 conn=wye bus1=p1rlv2597.1.2 kV=0.2080002494301389 Vminpu=0.8 Vmaxpu=1.2 model=1 kW=4.80005 kvar=0.9696571100672596 Phases=2

New Load.load_p1rlv2598 conn=wye bus1=p1rlv2598.1.2 kV=0.2080002494301389 Vminpu=0.8 Vmaxpu=1.2 model=1 kW=6.32006 kvar=1.2800322515103388 Phases=2

New Load.load_p1rlv2600 conn=wye bus1=p1rlv2600.1.2 kV=0.2080002494301389 Vminpu=0.8 Vmaxpu=1.2 model=1 kW=5.96006 kvar=1.2102418008983036 Phases=2

New Load.load_p1rlv2603 conn=wye bus1=p1rlv2603.1.2 kV=0.2080002494301389 Vminpu=0.8 Vmaxpu=1.2 model=1 kW=6.86007 kvar=1.3894030828217663 Phases=2

New Load.load_p1rlv2604 conn=wye bus1=p1rlv2604.1.2 kV=0.2080002494301389 Vminpu=0.8 Vmaxpu=1.2 model=1 kW=6.98007 kvar=1.4210117756404663 Phases=2

New Load.load_p1rlv2605 conn=wye bus1=p1rlv2605.1.2 kV=0.2080002494301389 Vminpu=0.8 Vmaxpu=1.2 model=1 kW=7.11007 kvar=1.4400367892861963 Phases=2

New Load.load_p1rlv2606 conn=wye bus1=p1rlv2606.1.2 kV=0.2080002494301389 Vminpu=0.8 Vmaxpu=1.2 model=1 kW=4.78005 kvar=1.569429585511589 Phases=2

New Load.load_p1rlv2607 conn=wye bus1=p1rlv2607.1.2 kV=0.2080002494301389 Vminpu=0.8 Vmaxpu=1.2 model=1 kW=6.75007 kvar=1.3706601733857733 Phases=2

New Load.load_p1rlv2727 conn=wye bus1=p1rlv2727.1.2 kV=0.2080002494301389 Vminpu=0.8 Vmaxpu=1.2 model=1 kW=5.43005 kvar=1.0997742311487098 Phases=2

New Load.load_p1rlv2728 conn=wye bus1=p1rlv2728.1.2 kV=0.2080002494301389 Vminpu=0.8 Vmaxpu=1.2 model=1 kW=5.06005 kvar=1.030131593999708 Phases=2

New Load.load_p1rlv2729 conn=wye bus1=p1rlv2729.1.2 kV=0.2080002494301389 Vminpu=0.8 Vmaxpu=1.2 model=1 kW=5.72006 kvar=1.1585113559957074 Phases=2

New Load.load_p1rlv2731 conn=wye bus1=p1rlv2731.1.2 kV=0.2080002494301389 Vminpu=0.8 Vmaxpu=1.2 model=1 kW=5.07005 kvar=1.0295175623474335 Phases=2

New Load.load_p1rlv2733 conn=wye bus1=p1rlv2733.1.2 kV=0.2080002494301389 Vminpu=0.8 Vmaxpu=1.2 model=1 kW=2.29002 kvar=0.7502524991524943 Phases=2

New Load.load_p1rlv2734 conn=wye bus1=p1rlv2734.1.2 kV=0.2080002494301389 Vminpu=0.8 Vmaxpu=1.2 model=1 kW=1.64002 kvar=0.5402115565350929 Phases=2

New Load.load_p1rlv2735 conn=wye bus1=p1rlv2735.1.2 kV=0.2080002494301389 Vminpu=0.8 Vmaxpu=1.2 model=1 kW=4.2400400000000005 kvar=0.8609768434346036 Phases=2

New Load.load_p1rlv2736 conn=wye bus1=p1rlv2736.1.2 kV=0.2080002494301389 Vminpu=0.8 Vmaxpu=1.2 model=1 kW=5.20005 kvar=1.061344635376904 Phases=2

New Load.load_p1rlv2737 conn=wye bus1=p1rlv2737.1.2 kV=0.2080002494301389 Vminpu=0.8 Vmaxpu=1.2 model=1 kW=4.97005 kvar=1.630046445986728 Phases=2

New Load.load_p1rlv2872 conn=wye bus1=p1rlv2872.1.2 kV=0.2080002494301389 Vminpu=0.8 Vmaxpu=1.2 model=1 kW=5.340050000000001 kvar=1.078742398644737 Phases=2

New Load.load_p1rlv2873 conn=wye bus1=p1rlv2873.1.2 kV=0.2080002494301389 Vminpu=0.8 Vmaxpu=1.2 model=1 kW=10.7101 kvar=2.1803761593059896 Phases=2

New Load.load_p1rlv2874 conn=wye bus1=p1rlv2874.1.2 kV=0.2080002494301389 Vminpu=0.8 Vmaxpu=1.2 model=1 kW=6.55007 kvar=2.15057868540536 Phases=2

New Load.load_p1rlv2875 conn=wye bus1=p1rlv2875.1.2 kV=0.2080002494301389 Vminpu=0.8 Vmaxpu=1.2 model=1 kW=6.15006 kvar=1.2488229464187643 Phases=2

New Load.load_p1rlv2876 conn=wye bus1=p1rlv2876.1.2 kV=0.2080002494301389 Vminpu=0.8 Vmaxpu=1.2 model=1 kW=4.87005 kvar=0.9889058302206326 Phases=2

New Load.load_p1rlv2877 conn=wye bus1=p1rlv2877.1.2 kV=0.2080002494301389 Vminpu=0.8 Vmaxpu=1.2 model=1 kW=6.75007 kvar=1.3706601733857733 Phases=2

New Load.load_p1rlv2878 conn=wye bus1=p1rlv2878.1.2 kV=0.2080002494301389 Vminpu=0.8 Vmaxpu=1.2 model=1 kW=1.87002 kvar=0.6099882354832751 Phases=2

New Load.load_p1rlv2879 conn=wye bus1=p1rlv2879.1.2 kV=0.2080002494301389 Vminpu=0.8 Vmaxpu=1.2 model=1 kW=4.80005 kvar=0.9696571100672596 Phases=2

New Load.load_p1rlv2880 conn=wye bus1=p1rlv2880.1.2 kV=0.2080002494301389 Vminpu=0.8 Vmaxpu=1.2 model=1 kW=6.59007 kvar=1.341615065793748 Phases=2

New Load.load_p1rlv2881 conn=wye bus1=p1rlv2881.1.2 kV=0.2080002494301389 Vminpu=0.8 Vmaxpu=1.2 model=1 kW=6.38006 kvar=1.288834604151149 Phases=2

New Load.load_p1rlv2882 conn=wye bus1=p1rlv2882.1.2 kV=0.2080002494301389 Vminpu=0.8 Vmaxpu=1.2 model=1 kW=4.31004 kvar=1.4196981848565944 Phases=2

New Load.load_p1rlv2989 conn=wye bus1=p1rlv2989.1.2 kV=0.2080002494301389 Vminpu=0.8 Vmaxpu=1.2 model=1 kW=4.920050000000001 kvar=0.9990587632523329 Phases=2

New Load.load_p1rlv2990 conn=wye bus1=p1rlv2990.1.2 kV=0.2080002494301389 Vminpu=0.8 Vmaxpu=1.2 model=1 kW=6.01006 kvar=1.2203947339300039 Phases=2

New Load.load_p1rlv2991 conn=wye bus1=p1rlv2991.1.2 kV=0.2080002494301389 Vminpu=0.8 Vmaxpu=1.2 model=1 kW=3.59004 kvar=0.7308650364566972 Phases=2

New Load.load_p1rlv3113 conn=wye bus1=p1rlv3113.1.2 kV=0.2080002494301389 Vminpu=0.8 Vmaxpu=1.2 model=1 kW=5.79006 kvar=1.1787479841412536 Phases=2

New Load.load_p1rlv3114 conn=wye bus1=p1rlv3114.1.2 kV=0.2080002494301389 Vminpu=0.8 Vmaxpu=1.2 model=1 kW=7.030070000000001 kvar=2.310672267294771 Phases=2

New Load.load_p1rlv3120 conn=wye bus1=p1rlv3120.1.2 kV=0.2080002494301389 Vminpu=0.8 Vmaxpu=1.2 model=1 kW=5.16005 kvar=1.0504897247296356 Phases=2
