  1 'GENSAE' 1  5.100000  0.060000  0.094000  4.500000  0.000000  0.890000  0.660000
  0.360000  0.290000  0.280000  0.087000  0.257000  /
  1 'SCRX' 1  1  1  100  0.05  -5  5  1  0  /
  2 'GENSAE' 1  5.100000  0.060000  0.094000  4.500000  0.000000  0.890000  0.660000
  0.360000  0.290000  0.280000  0.087000  0.257000  /
  2 'SCRX' 1  1  1  100  0.05  -5  5  1  0  /
  3 'GENROE' 1  5.300000  0.048000  0.625000  0.066000  3.859000  0.000000  1.720000
  1.679000  0.488000  0.800000  0.337000  0.266000  0.130000  1.067000  /
  3 'SCRX' 1  1  1  150  0.05  -5  5  1  0  /
  6 'GENCLS' 1  0.000000  0.000000  /
