New Line.l(r:p1udt281lv-p1ulv21786) Units=km Length=0.0133404 bus1=p1udt281lv.1.2 bus2=p1ulv21786.1.2 switch=n enabled=y phases=2 Linecode=1P_UG_AL_1/0_Brenau_0_416_0_2_2_2_2

New Line.l(r:p1udm981-p1ulv284) Units=km Length=0.0184012 bus1=p1udm981.1.2 bus2=p1ulv284.1.2 switch=n enabled=y phases=2 Linecode=1P_UG_AL_2/0_Converse_0_416_0_2_2_2_2

New Line.l(r:p1udm981-p1udt281lv) Units=km Length=0.00914123 bus1=p1udt281lv.1.2 bus2=p1udm981.1.2 switch=n enabled=y phases=2 Linecode=1P_UG_AL_2/0_Converse_0_416_0_2_2_2_2

New Line.l(r:p1udm982-p1ulv3501) Units=km Length=0.0147861 bus1=p1udm982.1.2 bus2=p1ulv3501.1.2 switch=n enabled=y phases=2 Linecode=1P_UG_AL_1/0_Brenau_0_416_0_2_2_2_2

New Line.l(r:p1udm982-p1udt281lv) Units=km Length=0.00914123 bus1=p1udt281lv.1.2 bus2=p1udm982.1.2 switch=n enabled=y phases=2 Linecode=1P_UG_AL_1/0_Brenau_0_416_0_2_2_2_2

New Line.l(r:p1udt283lv-p1ulv286) Units=km Length=0.016711900000000002 bus1=p1udt283lv.1.2 bus2=p1ulv286.1.2 switch=n enabled=y phases=2 Linecode=1P_UG_AL_1/0_Brenau_0_416_0_2_2_2_2

New Line.l(r:p1udm986-p1ulv12866) Units=km Length=0.018021800000000004 bus1=p1udm986.1.2 bus2=p1ulv12866.1.2 switch=n enabled=y phases=2 Linecode=1P_UG_AL_1/0_Brenau_0_416_0_2_2_2_2

New Line.l(r:p1udm986-p1ulv58237) Units=km Length=0.016741200000000005 bus1=p1udm986.1.2 bus2=p1ulv58237.1.2 switch=n enabled=y phases=2 Linecode=1P_UG_AL_1/0_Brenau_0_416_0_2_2_2_2

New Line.l(r:p1udm986-p1udt283lv) Units=km Length=0.00899632 bus1=p1udt283lv.1.2 bus2=p1udm986.1.2 switch=n enabled=y phases=2 Linecode=1P_UG_AL_4/0_Sweetbriar_0_416_0_2_2_2_2

New Line.l(r:p1udm987-p1ulv38255) Units=km Length=0.0170417 bus1=p1udm987.1.2 bus2=p1ulv38255.1.2 switch=n enabled=y phases=2 Linecode=1P_UG_AL_1/0_Brenau_0_416_0_2_2_2_2

New Line.l(r:p1udm988-p1ulv43960) Units=km Length=0.0174816 bus1=p1udm988.1.2 bus2=p1ulv43960.1.2 switch=n enabled=y phases=2 Linecode=1P_UG_AL_1/0_Brenau_0_416_0_2_2_2_2

New Line.l(r:p1udm987-p1udm988) Units=km Length=0.00899632 bus1=p1udm987.1.2 bus2=p1udm988.1.2 switch=n enabled=y phases=2 Linecode=1P_UG_AL_1/0_Brenau_0_416_0_2_2_2_2

New Line.l(r:p1udm987-p1udt283lv) Units=km Length=0.009005030000000002 bus1=p1udt283lv.1.2 bus2=p1udm987.1.2 switch=n enabled=y phases=2 Linecode=1P_UG_AL_4/0_Sweetbriar_0_416_0_2_2_2_2

New Line.l(r:p1udm990-p1ulv287) Units=km Length=0.0157935 bus1=p1udm990.1.2 bus2=p1ulv287.1.2 switch=n enabled=y phases=2 Linecode=1P_UG_AL_1/0_Brenau_0_416_0_2_2_2_2

New Line.l(r:p1udm990-p1udt284lv) Units=km Length=0.0617028 bus1=p1udt284lv.1.2 bus2=p1udm990.1.2 switch=n enabled=y phases=2 Linecode=1P_UG_AL_1/0_Brenau_0_416_0_2_2_2_2

New Line.l(r:p1udm991-p1ulv29396) Units=km Length=0.018505800000000003 bus1=p1udm991.1.2 bus2=p1ulv29396.1.2 switch=n enabled=y phases=2 Linecode=1P_UG_AL_1/0_Brenau_0_416_0_2_2_2_2

New Line.l(r:p1udm991-p1ulv59447) Units=km Length=0.0175854 bus1=p1udm991.1.2 bus2=p1ulv59447.1.2 switch=n enabled=y phases=2 Linecode=1P_UG_AL_1/0_Brenau_0_416_0_2_2_2_2

New Line.l(r:p1udm991-p1udt284lv) Units=km Length=0.020930700000000003 bus1=p1udt284lv.1.2 bus2=p1udm991.1.2 switch=n enabled=y phases=2 Linecode=1P_UG_AL_4/0_Sweetbriar_0_416_0_2_2_2_2

New Line.l(r:p1udt894lv-p1ulv37638) Units=km Length=0.0143823 bus1=p1udt894lv.1.2 bus2=p1ulv37638.1.2 switch=n enabled=y phases=2 Linecode=1P_UG_AL_1/0_Brenau_0_416_0_2_2_2_2

New Line.l(r:p1udm3254-p1ulv910) Units=km Length=0.015004 bus1=p1udm3254.1.2 bus2=p1ulv910.1.2 switch=n enabled=y phases=2 Linecode=1P_UG_AL_1/0_Brenau_0_416_0_2_2_2_2

New Line.l(r:p1udm3258-p1ulv63209) Units=km Length=0.0149487 bus1=p1udm3258.1.2 bus2=p1ulv63209.1.2 switch=n enabled=y phases=2 Linecode=1P_UG_AL_1/0_Brenau_0_416_0_2_2_2_2

New Line.l(r:p1udm3254-p1udm3258) Units=km Length=0.00947635 bus1=p1udm3254.1.2 bus2=p1udm3258.1.2 switch=n enabled=y phases=2 Linecode=1P_UG_AL_1/0_Brenau_0_416_0_2_2_2_2

New Line.l(r:p1udm3254-p1udt894lv) Units=km Length=0.0175765 bus1=p1udt894lv.1.2 bus2=p1udm3254.1.2 switch=n enabled=y phases=2 Linecode=1P_UG_AL_4/0_Sweetbriar_0_416_0_2_2_2_2

New Line.l(r:p1udm3255-p1ulv8514) Units=km Length=0.0158277 bus1=p1udm3255.1.2 bus2=p1ulv8514.1.2 switch=n enabled=y phases=2 Linecode=1P_UG_AL_1/0_Brenau_0_416_0_2_2_2_2

New Line.l(r:p1udm3256-p1ulv18561) Units=km Length=0.0164662 bus1=p1udm3256.1.2 bus2=p1ulv18561.1.2 switch=n enabled=y phases=2 Linecode=1P_UG_AL_1/0_Brenau_0_416_0_2_2_2_2

New Line.l(r:p1udm3255-p1udm3256) Units=km Length=0.00810015 bus1=p1udm3255.1.2 bus2=p1udm3256.1.2 switch=n enabled=y phases=2 Linecode=1P_UG_AL_1/0_Brenau_0_416_0_2_2_2_2

New Line.l(r:p1udm3255-p1udt894lv) Units=km Length=0.00810877 bus1=p1udt894lv.1.2 bus2=p1udm3255.1.2 switch=n enabled=y phases=2 Linecode=1P_UG_AL_4/0_Sweetbriar_0_416_0_2_2_2_2

New Line.l(r:p1udm3259-p1ulv911) Units=km Length=0.0192914 bus1=p1udm3259.1.2 bus2=p1ulv911.1.2 switch=n enabled=y phases=2 Linecode=1P_UG_AL_1/0_Brenau_0_416_0_2_2_2_2

New Line.l(r:p1udm3259-p1ulv52074) Units=km Length=0.0115986 bus1=p1udm3259.1.2 bus2=p1ulv52074.1.2 switch=n enabled=y phases=2 Linecode=1P_UG_AL_1/0_Brenau_0_416_0_2_2_2_2

New Line.l(r:p1udm3263-p1ulv55237) Units=km Length=0.0239836 bus1=p1udm3263.1.2 bus2=p1ulv55237.1.2 switch=n enabled=y phases=2 Linecode=1P_UG_AL_1/0_Brenau_0_416_0_2_2_2_2

New Line.l(r:p1udm3259-p1udm3263) Units=km Length=0.0593046 bus1=p1udm3259.1.2 bus2=p1udm3263.1.2 switch=n enabled=y phases=2 Linecode=1P_UG_AL_1/0_Brenau_0_416_0_2_2_2_2

New Line.l(r:p1udm3259-p1udt895lv) Units=km Length=0.00988838 bus1=p1udt895lv.1.2 bus2=p1udm3259.1.2 switch=n enabled=y phases=2 Linecode=1P_UG_AL_4/0_Sweetbriar_0_416_0_2_2_2_2

New Line.l(r:p1udm3261-p1ulv46525) Units=km Length=0.0151842 bus1=p1udm3261.1.2 bus2=p1ulv46525.1.2 switch=n enabled=y phases=2 Linecode=1P_UG_AL_1/0_Brenau_0_416_0_2_2_2_2

New Line.l(r:p1udm3260-p1ulv37037) Units=km Length=0.0189233 bus1=p1udm3260.1.2 bus2=p1ulv37037.1.2 switch=n enabled=y phases=2 Linecode=1P_UG_AL_1/0_Brenau_0_416_0_2_2_2_2

New Line.l(r:p1udm3260-p1udm3261) Units=km Length=0.0395319 bus1=p1udm3261.1.2 bus2=p1udm3260.1.2 switch=n enabled=y phases=2 Linecode=1P_UG_AL_1/0_Brenau_0_416_0_2_2_2_2

New Line.l(r:p1udm3261-p1udt895lv) Units=km Length=0.00987958 bus1=p1udt895lv.1.2 bus2=p1udm3261.1.2 switch=n enabled=y phases=2 Linecode=1P_UG_AL_4/0_Sweetbriar_0_416_0_2_2_2_2

New Line.l(r:p1udt898lv-p1ulv914) Units=km Length=0.0162593 bus1=p1udt898lv.1.2 bus2=p1ulv914.1.2 switch=n enabled=y phases=2 Linecode=1P_UG_AL_1/0_Brenau_0_416_0_2_2_2_2

New Line.l(r:p1udt898lv-p1ulv37038) Units=km Length=0.0227866 bus1=p1udt898lv.1.2 bus2=p1ulv37038.1.2 switch=n enabled=y phases=2 Linecode=1P_UG_AL_1/0_Brenau_0_416_0_2_2_2_2

New Line.l(r:p1udm3272-p1ulv51422) Units=km Length=0.0385907 bus1=p1udm3272.1.2 bus2=p1ulv51422.1.2 switch=n enabled=y phases=2 Linecode=1P_UG_AL_1/0_Brenau_0_416_0_2_2_2_2

New Line.l(r:p1udm3272-p1udt898lv) Units=km Length=0.00987958 bus1=p1udt898lv.1.2 bus2=p1udm3272.1.2 switch=n enabled=y phases=2 Linecode=1P_UG_AL_1/0_Brenau_0_416_0_2_2_2_2

New Line.l(r:p1udm3273-p1ulv55239) Units=km Length=0.0212534 bus1=p1udm3273.1.2 bus2=p1ulv55239.1.2 switch=n enabled=y phases=2 Linecode=1P_UG_AL_1/0_Brenau_0_416_0_2_2_2_2

New Line.l(r:p1udm3273-p1udt898lv) Units=km Length=0.00988838 bus1=p1udt898lv.1.2 bus2=p1udm3273.1.2 switch=n enabled=y phases=2 Linecode=1P_UG_AL_1/0_Brenau_0_416_0_2_2_2_2

New Line.l(r:p1udt970lv-p1ulv990) Units=km Length=0.0268454 bus1=p1udt970lv.1.2 bus2=p1ulv990.1.2 switch=n enabled=y phases=2 Linecode=1P_UG_AL_1/0_Brenau_0_416_0_2_2_2_2

New Line.l(r:p1udt970lv-p1ulv6738) Units=km Length=0.0217691 bus1=p1udt970lv.1.2 bus2=p1ulv6738.1.2 switch=n enabled=y phases=2 Linecode=1P_UG_AL_1/0_Brenau_0_416_0_2_2_2_2

New Line.l(r:p1udt970lv-p1ulv11687) Units=km Length=0.0262301 bus1=p1udt970lv.1.2 bus2=p1ulv11687.1.2 switch=n enabled=y phases=2 Linecode=1P_UG_AL_4/0_Sweetbriar_0_416_0_2_2_2_2

New Line.l(r:p1udt970lv-p1ulv35871) Units=km Length=0.0269159 bus1=p1udt970lv.1.2 bus2=p1ulv35871.1.2 switch=n enabled=y phases=2 Linecode=1P_UG_AL_1/0_Brenau_0_416_0_2_2_2_2

New Line.l(r:p1udt971lv-p1ulv991) Units=km Length=0.0239715 bus1=p1udt971lv.1.2 bus2=p1ulv991.1.2 switch=n enabled=y phases=2 Linecode=1P_UG_AL_1/0_Brenau_0_416_0_2_2_2_2

New Line.l(r:p1udt971lv-p1ulv29479) Units=km Length=0.024048900000000005 bus1=p1udt971lv.1.2 bus2=p1ulv29479.1.2 switch=n enabled=y phases=2 Linecode=1P_UG_AL_4/0_Sweetbriar_0_416_0_2_2_2_2

New Line.l(r:p1udt971lv-p1ulv57715) Units=km Length=0.0244378 bus1=p1udt971lv.1.2 bus2=p1ulv57715.1.2 switch=n enabled=y phases=2 Linecode=1P_UG_AL_1/0_Brenau_0_416_0_2_2_2_2

New Line.l(r:p1udt971lv-p1ulv58317) Units=km Length=0.024172900000000004 bus1=p1udt971lv.1.2 bus2=p1ulv58317.1.2 switch=n enabled=y phases=2 Linecode=1P_UG_AL_1/0_Brenau_0_416_0_2_2_2_2

New Line.l(r:p1udm3550-p1ulv992) Units=km Length=0.0154374 bus1=p1udm3550.1.2 bus2=p1ulv992.1.2 switch=n enabled=y phases=2 Linecode=1P_UG_AL_1/0_Brenau_0_416_0_2_2_2_2

New Line.l(r:p1udm3551-p1ulv2947) Units=km Length=0.0162152 bus1=p1udm3551.1.2 bus2=p1ulv2947.1.2 switch=n enabled=y phases=2 Linecode=1P_UG_AL_4/0_Sweetbriar_0_416_0_2_2_2_2

New Line.l(r:p1udm3550-p1udm3551) Units=km Length=0.00925091 bus1=p1udm3550.1.2 bus2=p1udm3551.1.2 switch=n enabled=y phases=2 Linecode=1P_UG_AL_4/0_Sweetbriar_0_416_0_2_2_2_2

New Line.l(r:p1udm3550-p1udt972lv) Units=km Length=0.018491700000000003 bus1=p1udt972lv.1.2 bus2=p1udm3550.1.2 switch=n enabled=y phases=2 Linecode=1P_UG_AL_4/0_Sweetbriar_0_416_0_2_2_2_2

New Line.l(r:p1udm3552-p1ulv21249) Units=km Length=0.0165182 bus1=p1udm3552.1.2 bus2=p1ulv21249.1.2 switch=n enabled=y phases=2 Linecode=1P_UG_AL_2/0_Converse_0_416_0_2_2_2_2

New Line.l(r:p1udm3552-p1ulv61381) Units=km Length=0.0146249 bus1=p1udm3552.1.2 bus2=p1ulv61381.1.2 switch=n enabled=y phases=2 Linecode=1P_UG_AL_1/0_Brenau_0_416_0_2_2_2_2

New Line.l(r:p1udm3552-p1udt972lv) Units=km Length=0.0159494 bus1=p1udt972lv.1.2 bus2=p1udm3552.1.2 switch=n enabled=y phases=2 Linecode=1P_UG_AL_4/0_Sweetbriar_0_416_0_2_2_2_2

New Line.l(r:p1udt973lv-p1ulv16051) Units=km Length=0.0159261 bus1=p1udt973lv.1.2 bus2=p1ulv16051.1.2 switch=n enabled=y phases=2 Linecode=1P_UG_AL_1/0_Brenau_0_416_0_2_2_2_2

New Line.l(r:p1udm3554-p1ulv993) Units=km Length=0.0155337 bus1=p1udm3554.1.2 bus2=p1ulv993.1.2 switch=n enabled=y phases=2 Linecode=1P_UG_AL_1/0_Brenau_0_416_0_2_2_2_2

New Line.l(r:p1udm3554-p1ulv36500) Units=km Length=0.0127752 bus1=p1udm3554.1.2 bus2=p1ulv36500.1.2 switch=n enabled=y phases=2 Linecode=1P_UG_AL_1/0_Brenau_0_416_0_2_2_2_2

New Line.l(r:p1udm3558-p1ulv52159) Units=km Length=0.0153977 bus1=p1udm3558.1.2 bus2=p1ulv52159.1.2 switch=n enabled=y phases=2 Linecode=1P_UG_AL_1/0_Brenau_0_416_0_2_2_2_2

New Line.l(r:p1udm3554-p1udm3558) Units=km Length=0.0198382 bus1=p1udm3554.1.2 bus2=p1udm3558.1.2 switch=n enabled=y phases=2 Linecode=1P_UG_AL_1/0_Brenau_0_416_0_2_2_2_2

New Line.l(r:p1udm3554-p1udt973lv) Units=km Length=0.00992381 bus1=p1udt973lv.1.2 bus2=p1udm3554.1.2 switch=n enabled=y phases=2 Linecode=1P_UG_AL_4/0_Sweetbriar_0_416_0_2_2_2_2

New Line.l(r:p1udm3557-p1ulv49062) Units=km Length=0.0158389 bus1=p1udm3557.1.2 bus2=p1ulv49062.1.2 switch=n enabled=y phases=2 Linecode=1P_UG_AL_1/0_Brenau_0_416_0_2_2_2_2

New Line.l(r:p1udm3557-p1udt973lv) Units=km Length=0.0591807 bus1=p1udt973lv.1.2 bus2=p1udm3557.1.2 switch=n enabled=y phases=2 Linecode=1P_UG_AL_1/0_Brenau_0_416_0_2_2_2_2

New Line.l(r:p1udt1527lv-p1ulv1583) Units=km Length=0.0174731 bus1=p1udt1527lv.1.2 bus2=p1ulv1583.1.2 switch=n enabled=y phases=2 Linecode=1P_UG_AL_4/0_Sweetbriar_0_416_0_2_2_2_2

New Line.l(r:p1udt1527lv-p1ulv50163) Units=km Length=0.0149807 bus1=p1udt1527lv.1.2 bus2=p1ulv50163.1.2 switch=n enabled=y phases=2 Linecode=1P_UG_AL_1/0_Brenau_0_416_0_2_2_2_2

New Line.l(r:p1udm5590-p1ulv9130) Units=km Length=0.0147665 bus1=p1udm5590.1.2 bus2=p1ulv9130.1.2 switch=n enabled=y phases=2 Linecode=1P_UG_AL_1/0_Brenau_0_416_0_2_2_2_2

New Line.l(r:p1udm5590-p1udt1527lv) Units=km Length=0.0193122 bus1=p1udt1527lv.1.2 bus2=p1udm5590.1.2 switch=n enabled=y phases=2 Linecode=1P_UG_AL_1/0_Brenau_0_416_0_2_2_2_2

New Line.l(r:p1udm5591-p1ulv38925) Units=km Length=0.017317 bus1=p1udm5591.1.2 bus2=p1ulv38925.1.2 switch=n enabled=y phases=2 Linecode=1P_UG_AL_1/0_Brenau_0_416_0_2_2_2_2

New Line.l(r:p1udm5591-p1udt1527lv) Units=km Length=0.0193257 bus1=p1udt1527lv.1.2 bus2=p1udm5591.1.2 switch=n enabled=y phases=2 Linecode=1P_UG_AL_1/0_Brenau_0_416_0_2_2_2_2

New Line.l(r:p1udt1528lv-p1ulv1584) Units=km Length=0.0110647 bus1=p1udt1528lv.1.2 bus2=p1ulv1584.1.2 switch=n enabled=y phases=2 Linecode=1P_OH_AL_2/0_Rucina_0_416_0_2_2_2_2

New Line.l(r:p1udm5843-p1ulv1659) Units=km Length=0.0438131 bus1=p1udm5843.1.2 bus2=p1ulv1659.1.2 switch=n enabled=y phases=2 Linecode=1P_OH_AL_4/0_Zuzara_0_416_0_2_2_2_2

New Line.l(r:p1udm5843-p1udt1594lv) Units=km Length=0.0191327 bus1=p1udt1594lv.1.2 bus2=p1udm5843.1.2 switch=n enabled=y phases=2 Linecode=1P_OH_AL_2/0_Rucina_0_416_0_2_2_2_2

New Line.l(r:p1udm5844-p1ulv60114) Units=km Length=0.0236457 bus1=p1udm5844.1.2 bus2=p1ulv60114.1.2 switch=n enabled=y phases=2 Linecode=1P_OH_AL_2/0_Rucina_0_416_0_2_2_2_2

New Line.l(r:p1udm5844-p1udt1594lv) Units=km Length=0.0382666 bus1=p1udt1594lv.1.2 bus2=p1udm5844.1.2 switch=n enabled=y phases=2 Linecode=1P_OH_AL_4/0_Zuzara_0_416_0_2_2_2_2

New Line.l(r:p1udt1617lv-p1ulv1686) Units=km Length=0.0162854 bus1=p1udt1617lv.1.2 bus2=p1ulv1686.1.2 switch=n enabled=y phases=2 Linecode=1P_UG_AL_1/0_Brenau_0_416_0_2_2_2_2

New Line.l(r:p1udt1617lv-p1ulv45301) Units=km Length=0.0162564 bus1=p1udt1617lv.1.2 bus2=p1ulv45301.1.2 switch=n enabled=y phases=2 Linecode=1P_UG_AL_1/0_Brenau_0_416_0_2_2_2_2

New Line.l(r:p1udt1618lv-p1ulv1687) Units=km Length=0.0169248 bus1=p1udt1618lv.1.2 bus2=p1ulv1687.1.2 switch=n enabled=y phases=2 Linecode=1P_UG_AL_1/0_Brenau_0_416_0_2_2_2_2

New Line.l(r:p1udm5926-p1ulv39008) Units=km Length=0.016082900000000004 bus1=p1udm5926.1.2 bus2=p1ulv39008.1.2 switch=n enabled=y phases=2 Linecode=1P_UG_AL_1/0_Brenau_0_416_0_2_2_2_2

New Line.l(r:p1udm5926-p1ulv59531) Units=km Length=0.0127639 bus1=p1udm5926.1.2 bus2=p1ulv59531.1.2 switch=n enabled=y phases=2 Linecode=1P_UG_AL_1/0_Brenau_0_416_0_2_2_2_2

New Line.l(r:p1udm5926-p1udt1618lv) Units=km Length=0.00976414 bus1=p1udt1618lv.1.2 bus2=p1udm5926.1.2 switch=n enabled=y phases=2 Linecode=1P_UG_AL_4/0_Sweetbriar_0_416_0_2_2_2_2

New Line.l(r:p1udt1619lv-p1ulv12948) Units=km Length=0.0161586 bus1=p1udt1619lv.1.2 bus2=p1ulv12948.1.2 switch=n enabled=y phases=2 Linecode=1P_UG_AL_1/0_Brenau_0_416_0_2_2_2_2

New Line.l(r:p1udm5928-p1ulv1688) Units=km Length=0.0143769 bus1=p1udm5928.1.2 bus2=p1ulv1688.1.2 switch=n enabled=y phases=2 Linecode=1P_UG_AL_1/0_Brenau_0_416_0_2_2_2_2

New Line.l(r:p1udm5928-p1ulv19956) Units=km Length=0.0164896 bus1=p1udm5928.1.2 bus2=p1ulv19956.1.2 switch=n enabled=y phases=2 Linecode=1P_UG_AL_1/0_Brenau_0_416_0_2_2_2_2

New Line.l(r:p1udm5928-p1udt1619lv) Units=km Length=0.009499480000000001 bus1=p1udt1619lv.1.2 bus2=p1udm5928.1.2 switch=n enabled=y phases=2 Linecode=1P_UG_AL_4/0_Sweetbriar_0_416_0_2_2_2_2

New Line.l(r:p1udm5931-p1ulv20595) Units=km Length=0.0161571 bus1=p1udm5931.1.2 bus2=p1ulv20595.1.2 switch=n enabled=y phases=2 Linecode=1P_UG_AL_1/0_Brenau_0_416_0_2_2_2_2

New Line.l(r:p1udm5932-p1ulv42710) Units=km Length=0.0118048 bus1=p1udm5932.1.2 bus2=p1ulv42710.1.2 switch=n enabled=y phases=2 Linecode=1P_UG_AL_1/0_Brenau_0_416_0_2_2_2_2

New Line.l(r:p1udm5931-p1udm5932) Units=km Length=0.027621700000000003 bus1=p1udm5931.1.2 bus2=p1udm5932.1.2 switch=n enabled=y phases=2 Linecode=1P_UG_AL_1/0_Brenau_0_416_0_2_2_2_2

New Line.l(r:p1udm5931-p1udt1619lv) Units=km Length=0.009499480000000001 bus1=p1udt1619lv.1.2 bus2=p1udm5931.1.2 switch=n enabled=y phases=2 Linecode=1P_UG_AL_4/0_Sweetbriar_0_416_0_2_2_2_2

New Line.l(r:p1udt1620lv-p1ulv7366) Units=km Length=0.0157676 bus1=p1udt1620lv.1.2 bus2=p1ulv7366.1.2 switch=n enabled=y phases=2 Linecode=1P_UG_AL_1/0_Brenau_0_416_0_2_2_2_2

New Line.l(r:p1udt1620lv-p1ulv7367) Units=km Length=0.0157533 bus1=p1udt1620lv.1.2 bus2=p1ulv7367.1.2 switch=n enabled=y phases=2 Linecode=1P_UG_AL_1/0_Brenau_0_416_0_2_2_2_2

New Line.l(r:p1udm5933-p1ulv1689) Units=km Length=0.0178917 bus1=p1udm5933.1.2 bus2=p1ulv1689.1.2 switch=n enabled=y phases=2 Linecode=1P_UG_AL_1/0_Brenau_0_416_0_2_2_2_2

New Line.l(r:p1udm5933-p1udt1620lv) Units=km Length=0.00919462 bus1=p1udt1620lv.1.2 bus2=p1udm5933.1.2 switch=n enabled=y phases=2 Linecode=1P_UG_AL_1/0_Brenau_0_416_0_2_2_2_2

New Line.l(r:p1udt1623lv-p1ulv1692) Units=km Length=0.00890386 bus1=p1udt1623lv.1.2 bus2=p1ulv1692.1.2 switch=n enabled=y phases=2 Linecode=1P_OH_AL_2/0_Rucina_0_416_0_2_2_2_2

New Line.l(r:p1udt1623lv-p1ulv15411) Units=km Length=0.0107648 bus1=p1udt1623lv.1.2 bus2=p1ulv15411.1.2 switch=n enabled=y phases=2 Linecode=1P_OH_AL_2/0_Rucina_0_416_0_2_2_2_2

New Line.l(r:p1udm5945-p1ulv32001) Units=km Length=0.0110637 bus1=p1udm5945.1.2 bus2=p1ulv32001.1.2 switch=n enabled=y phases=2 Linecode=1P_OH_AL_2/0_Rucina_0_416_0_2_2_2_2

New Line.l(r:p1udm5945-p1udt1623lv) Units=km Length=0.0148946 bus1=p1udt1623lv.1.2 bus2=p1udm5945.1.2 switch=n enabled=y phases=2 Linecode=1P_OH_AL_2/0_Rucina_0_416_0_2_2_2_2

New Line.l(r:p1udt2098lv-p1ulv30023) Units=km Length=0.014902000000000002 bus1=p1udt2098lv.1.2 bus2=p1ulv30023.1.2 switch=n enabled=y phases=2 Linecode=1P_UG_AL_1/0_Brenau_0_416_0_2_2_2_2

New Line.l(r:p1udm7603-p1ulv2209) Units=km Length=0.0163805 bus1=p1udm7603.1.2 bus2=p1ulv2209.1.2 switch=n enabled=y phases=2 Linecode=1P_UG_AL_1/0_Brenau_0_416_0_2_2_2_2

New Line.l(r:p1udm7603-p1udt2098lv) Units=km Length=0.00973039 bus1=p1udt2098lv.1.2 bus2=p1udm7603.1.2 switch=n enabled=y phases=2 Linecode=1P_UG_AL_1/0_Brenau_0_416_0_2_2_2_2

New Line.l(r:p1udm7605-p1ulv35798) Units=km Length=0.0159996 bus1=p1udm7605.1.2 bus2=p1ulv35798.1.2 switch=n enabled=y phases=2 Linecode=1P_UG_AL_1/0_Brenau_0_416_0_2_2_2_2

New Line.l(r:p1udm7605-p1udt2098lv) Units=km Length=0.0194695 bus1=p1udt2098lv.1.2 bus2=p1udm7605.1.2 switch=n enabled=y phases=2 Linecode=1P_UG_AL_1/0_Brenau_0_416_0_2_2_2_2

New Line.l(r:p1udt2099lv-p1ulv2210) Units=km Length=0.0164442 bus1=p1udt2099lv.1.2 bus2=p1ulv2210.1.2 switch=n enabled=y phases=2 Linecode=1P_UG_AL_1/0_Brenau_0_416_0_2_2_2_2

New Line.l(r:p1udm7607-p1ulv9131) Units=km Length=0.01491 bus1=p1udm7607.1.2 bus2=p1ulv9131.1.2 switch=n enabled=y phases=2 Linecode=1P_UG_AL_1/0_Brenau_0_416_0_2_2_2_2

New Line.l(r:p1udm7607-p1udt2099lv) Units=km Length=0.00973039 bus1=p1udt2099lv.1.2 bus2=p1udm7607.1.2 switch=n enabled=y phases=2 Linecode=1P_UG_AL_1/0_Brenau_0_416_0_2_2_2_2

New Line.l(r:p1udm7608-p1ulv22383) Units=km Length=0.0168734 bus1=p1udm7608.1.2 bus2=p1ulv22383.1.2 switch=n enabled=y phases=2 Linecode=1P_UG_AL_1/0_Brenau_0_416_0_2_2_2_2

New Line.l(r:p1udm7608-p1udt2099lv) Units=km Length=0.00973914 bus1=p1udt2099lv.1.2 bus2=p1udm7608.1.2 switch=n enabled=y phases=2 Linecode=1P_UG_AL_1/0_Brenau_0_416_0_2_2_2_2

New Line.l(r:p1udt2100lv-p1ulv2211) Units=km Length=0.0154521 bus1=p1udt2100lv.1.2 bus2=p1ulv2211.1.2 switch=n enabled=y phases=2 Linecode=1P_UG_AL_1/0_Brenau_0_416_0_2_2_2_2

New Line.l(r:p1udt2100lv-p1ulv50164) Units=km Length=0.0158383 bus1=p1udt2100lv.1.2 bus2=p1ulv50164.1.2 switch=n enabled=y phases=2 Linecode=1P_UG_AL_1/0_Brenau_0_416_0_2_2_2_2

New Line.l(r:p1udt2100lv-p1ulv52732) Units=km Length=0.0173686 bus1=p1udt2100lv.1.2 bus2=p1ulv52732.1.2 switch=n enabled=y phases=2 Linecode=1P_UG_AL_1/0_Brenau_0_416_0_2_2_2_2

New Line.l(r:p1udm7610-p1ulv15345) Units=km Length=0.0172199 bus1=p1udm7610.1.2 bus2=p1ulv15345.1.2 switch=n enabled=y phases=2 Linecode=1P_UG_AL_1/0_Brenau_0_416_0_2_2_2_2

New Line.l(r:p1udm7610-p1udt2100lv) Units=km Length=0.0391133 bus1=p1udt2100lv.1.2 bus2=p1udm7610.1.2 switch=n enabled=y phases=2 Linecode=1P_UG_AL_1/0_Brenau_0_416_0_2_2_2_2

New Line.l(r:p1udm7611-p1ulv43303) Units=km Length=0.0158669 bus1=p1udm7611.1.2 bus2=p1ulv43303.1.2 switch=n enabled=y phases=2 Linecode=1P_UG_AL_1/0_Brenau_0_416_0_2_2_2_2

New Line.l(r:p1udm7611-p1udt2100lv) Units=km Length=0.0195567 bus1=p1udt2100lv.1.2 bus2=p1udm7611.1.2 switch=n enabled=y phases=2 Linecode=1P_UG_AL_1/0_Brenau_0_416_0_2_2_2_2

New Line.l(r:p1udt2163lv-p1ulv54720) Units=km Length=0.00936339 bus1=p1udt2163lv.1.2 bus2=p1ulv54720.1.2 switch=n enabled=y phases=2 Linecode=1P_OH_AL_2/0_Rucina_0_416_0_2_2_2_2

New Line.l(r:p1udm7846-p1ulv2282) Units=km Length=0.00852015 bus1=p1udm7846.1.2 bus2=p1ulv2282.1.2 switch=n enabled=y phases=2 Linecode=1P_OH_AL_2/0_Rucina_0_416_0_2_2_2_2

New Line.l(r:p1udm7846-p1udt2163lv) Units=km Length=0.0134332 bus1=p1udt2163lv.1.2 bus2=p1udm7846.1.2 switch=n enabled=y phases=2 Linecode=1P_OH_AL_2/0_Rucina_0_416_0_2_2_2_2

New Line.l(r:p1udt2164lv-p1ulv2283) Units=km Length=0.0149061 bus1=p1udt2164lv.1.2 bus2=p1ulv2283.1.2 switch=n enabled=y phases=2 Linecode=1P_UG_AL_1/0_Brenau_0_416_0_2_2_2_2

New Line.l(r:p1udt2164lv-p1ulv53403) Units=km Length=0.0169558 bus1=p1udt2164lv.1.2 bus2=p1ulv53403.1.2 switch=n enabled=y phases=2 Linecode=1P_UG_AL_1/0_Brenau_0_416_0_2_2_2_2

New Line.l(r:p1udm7850-p1ulv65094) Units=km Length=0.016685 bus1=p1udm7850.1.2 bus2=p1ulv65094.1.2 switch=n enabled=y phases=2 Linecode=1P_UG_AL_1/0_Brenau_0_416_0_2_2_2_2

New Line.l(r:p1udm7850-p1udt2164lv) Units=km Length=0.0188242 bus1=p1udt2164lv.1.2 bus2=p1udm7850.1.2 switch=n enabled=y phases=2 Linecode=1P_UG_AL_1/0_Brenau_0_416_0_2_2_2_2

New Line.l(r:p1udt2179lv-p1ulv10474) Units=km Length=0.0154158 bus1=p1udt2179lv.1.2 bus2=p1ulv10474.1.2 switch=n enabled=y phases=2 Linecode=1P_UG_AL_1/0_Brenau_0_416_0_2_2_2_2

New Line.l(r:p1udm7902-p1ulv2298) Units=km Length=0.0161899 bus1=p1udm7902.1.2 bus2=p1ulv2298.1.2 switch=n enabled=y phases=2 Linecode=1P_UG_AL_1/0_Brenau_0_416_0_2_2_2_2

New Line.l(r:p1udm7902-p1ulv11688) Units=km Length=0.0145954 bus1=p1udm7902.1.2 bus2=p1ulv11688.1.2 switch=n enabled=y phases=2 Linecode=1P_UG_AL_1/0_Brenau_0_416_0_2_2_2_2

New Line.l(r:p1udm7902-p1udt2179lv) Units=km Length=0.00962422 bus1=p1udt2179lv.1.2 bus2=p1udm7902.1.2 switch=n enabled=y phases=2 Linecode=1P_UG_AL_4/0_Sweetbriar_0_416_0_2_2_2_2

New Line.l(r:p1udm7905-p1ulv37120) Units=km Length=0.0149142 bus1=p1udm7905.1.2 bus2=p1ulv37120.1.2 switch=n enabled=y phases=2 Linecode=1P_UG_AL_1/0_Brenau_0_416_0_2_2_2_2

New Line.l(r:p1udm7905-p1ulv43389) Units=km Length=0.0164492 bus1=p1udm7905.1.2 bus2=p1ulv43389.1.2 switch=n enabled=y phases=2 Linecode=1P_UG_AL_1/0_Brenau_0_416_0_2_2_2_2

New Line.l(r:p1udm7905-p1udt2179lv) Units=km Length=0.009635320000000001 bus1=p1udt2179lv.1.2 bus2=p1udm7905.1.2 switch=n enabled=y phases=2 Linecode=1P_UG_AL_4/0_Sweetbriar_0_416_0_2_2_2_2

New Line.l(r:p1udt2180lv-p1ulv33323) Units=km Length=0.0159859 bus1=p1udt2180lv.1.2 bus2=p1ulv33323.1.2 switch=n enabled=y phases=2 Linecode=1P_UG_AL_1/0_Brenau_0_416_0_2_2_2_2

New Line.l(r:p1udm7907-p1ulv2300) Units=km Length=0.0161311 bus1=p1udm7907.1.2 bus2=p1ulv2300.1.2 switch=n enabled=y phases=2 Linecode=1P_UG_AL_4/0_Sweetbriar_0_416_0_2_2_2_2

New Line.l(r:p1udm7907-p1ulv2944) Units=km Length=0.0157745 bus1=p1udm7907.1.2 bus2=p1ulv2944.1.2 switch=n enabled=y phases=2 Linecode=1P_UG_AL_1/0_Brenau_0_416_0_2_2_2_2

New Line.l(r:p1udm7907-p1udt2180lv) Units=km Length=0.00965859 bus1=p1udt2180lv.1.2 bus2=p1udm7907.1.2 switch=n enabled=y phases=2 Linecode=1P_UG_AL_4/0_Sweetbriar_0_416_0_2_2_2_2

New Line.l(r:p1udm7909-p1ulv18663) Units=km Length=0.0152248 bus1=p1udm7909.1.2 bus2=p1ulv18663.1.2 switch=n enabled=y phases=2 Linecode=1P_UG_AL_1/0_Brenau_0_416_0_2_2_2_2

New Line.l(r:p1udm7909-p1udt2180lv) Units=km Length=0.00964886 bus1=p1udt2180lv.1.2 bus2=p1udm7909.1.2 switch=n enabled=y phases=2 Linecode=1P_UG_AL_1/0_Brenau_0_416_0_2_2_2_2

New Line.l(r:p1udt2182lv-p1ulv44043) Units=km Length=0.022490700000000002 bus1=p1udt2182lv.1.2 bus2=p1ulv44043.1.2 switch=n enabled=y phases=2 Linecode=1P_UG_AL_1/0_Brenau_0_416_0_2_2_2_2

New Line.l(r:p1udt2182lv-p1ulv59534) Units=km Length=0.0151119 bus1=p1udt2182lv.1.2 bus2=p1ulv59534.1.2 switch=n enabled=y phases=2 Linecode=1P_UG_AL_1/0_Brenau_0_416_0_2_2_2_2

New Line.l(r:p1udm7917-p1ulv29482) Units=km Length=0.01695 bus1=p1udm7917.1.2 bus2=p1ulv29482.1.2 switch=n enabled=y phases=2 Linecode=1P_UG_AL_1/0_Brenau_0_416_0_2_2_2_2

New Line.l(r:p1udm7917-p1udt2182lv) Units=km Length=0.00919462 bus1=p1udt2182lv.1.2 bus2=p1udm7917.1.2 switch=n enabled=y phases=2 Linecode=1P_UG_AL_1/0_Brenau_0_416_0_2_2_2_2

New Line.l(r:p1udm7918-p1ulv40279) Units=km Length=0.0169835 bus1=p1udm7918.1.2 bus2=p1ulv40279.1.2 switch=n enabled=y phases=2 Linecode=1P_UG_AL_1/0_Brenau_0_416_0_2_2_2_2

New Line.l(r:p1udm7916-p1ulv2302) Units=km Length=0.015129800000000002 bus1=p1udm7916.1.2 bus2=p1ulv2302.1.2 switch=n enabled=y phases=2 Linecode=1P_UG_AL_1/0_Brenau_0_416_0_2_2_2_2

New Line.l(r:p1udm7916-p1udm7918) Units=km Length=0.00920431 bus1=p1udm7918.1.2 bus2=p1udm7916.1.2 switch=n enabled=y phases=2 Linecode=1P_UG_AL_1/0_Brenau_0_416_0_2_2_2_2

New Line.l(r:p1udm7918-p1udt2182lv) Units=km Length=0.00920185 bus1=p1udt2182lv.1.2 bus2=p1udm7918.1.2 switch=n enabled=y phases=2 Linecode=1P_UG_AL_4/0_Sweetbriar_0_416_0_2_2_2_2

New Line.l(r:p1udt2183lv-p1ulv2303) Units=km Length=0.015609 bus1=p1udt2183lv.1.2 bus2=p1ulv2303.1.2 switch=n enabled=y phases=2 Linecode=1P_UG_AL_4/0_Sweetbriar_0_416_0_2_2_2_2

New Line.l(r:p1udt2183lv-p1ulv65190) Units=km Length=0.0171058 bus1=p1udt2183lv.1.2 bus2=p1ulv65190.1.2 switch=n enabled=y phases=2 Linecode=1P_UG_AL_1/0_Brenau_0_416_0_2_2_2_2

New Line.l(r:p1udm9587-p1ulv2844) Units=km Length=0.00969464 bus1=p1udm9587.1.2 bus2=p1ulv2844.1.2 switch=n enabled=y phases=2 Linecode=1P_OH_AL_2/0_Rucina_0_416_0_2_2_2_2

New Line.l(r:p1udm9587-p1udt2678lv) Units=km Length=0.0121875 bus1=p1udt2678lv.1.2 bus2=p1udm9587.1.2 switch=n enabled=y phases=2 Linecode=1P_OH_AL_2/0_Rucina_0_416_0_2_2_2_2

New Line.l(r:p1udm9588-p1ulv10375) Units=km Length=0.00863422 bus1=p1udm9588.1.2 bus2=p1ulv10375.1.2 switch=n enabled=y phases=2 Linecode=1P_OH_AL_2/0_Rucina_0_416_0_2_2_2_2

New Line.l(r:p1udm9588-p1udt2678lv) Units=km Length=0.0114019 bus1=p1udt2678lv.1.2 bus2=p1udm9588.1.2 switch=n enabled=y phases=2 Linecode=1P_OH_AL_2/0_Rucina_0_416_0_2_2_2_2

New Line.l(r:p1udt2734lv-p1ulv2911) Units=km Length=0.00979656 bus1=p1udt2734lv.1.2 bus2=p1ulv2911.1.2 switch=n enabled=y phases=2 Linecode=1P_OH_AL_2/0_Rucina_0_416_0_2_2_2_2

New Line.l(r:p1udt2734lv-p1ulv33929) Units=km Length=0.0118124 bus1=p1udt2734lv.1.2 bus2=p1ulv33929.1.2 switch=n enabled=y phases=2 Linecode=1P_OH_AL_2/0_Rucina_0_416_0_2_2_2_2

New Line.l(r:p1udt2735lv-p1ulv2912) Units=km Length=0.007444040000000001 bus1=p1udt2735lv.1.2 bus2=p1ulv2912.1.2 switch=n enabled=y phases=2 Linecode=1P_OH_AL_2/0_Rucina_0_416_0_2_2_2_2

New Line.l(r:p1udt2735lv-p1ulv3567) Units=km Length=0.0074516700000000005 bus1=p1udt2735lv.1.2 bus2=p1ulv3567.1.2 switch=n enabled=y phases=2 Linecode=1P_OH_AL_2/0_Rucina_0_416_0_2_2_2_2

New Line.l(r:p1udm9776-p1ulv2913) Units=km Length=0.0143438 bus1=p1udm9776.1.2 bus2=p1ulv2913.1.2 switch=n enabled=y phases=2 Linecode=1P_UG_AL_1/0_Brenau_0_416_0_2_2_2_2

New Line.l(r:p1udm9776-p1ulv25029) Units=km Length=0.0169552 bus1=p1udm9776.1.2 bus2=p1ulv25029.1.2 switch=n enabled=y phases=2 Linecode=1P_UG_AL_1/0_Brenau_0_416_0_2_2_2_2

New Line.l(r:p1udm9776-p1ulv37096) Units=km Length=0.0155346 bus1=p1udm9776.1.2 bus2=p1ulv37096.1.2 switch=n enabled=y phases=2 Linecode=1P_UG_AL_1/0_Brenau_0_416_0_2_2_2_2

New Line.l(r:p1udm9776-p1udt2736lv) Units=km Length=0.00944884 bus1=p1udt2736lv.1.2 bus2=p1udm9776.1.2 switch=n enabled=y phases=2 Linecode=1P_UG_AL_4/0_Sweetbriar_0_416_0_2_2_2_2

New Line.l(r:p1udm9777-p1ulv6066) Units=km Length=0.0153411 bus1=p1udm9777.1.2 bus2=p1ulv6066.1.2 switch=n enabled=y phases=2 Linecode=1P_UG_AL_1/0_Brenau_0_416_0_2_2_2_2

New Line.l(r:p1udm9777-p1ulv48410) Units=km Length=0.0167524 bus1=p1udm9777.1.2 bus2=p1ulv48410.1.2 switch=n enabled=y phases=2 Linecode=1P_UG_AL_1/0_Brenau_0_416_0_2_2_2_2

New Line.l(r:p1udm9777-p1udt2736lv) Units=km Length=0.00944884 bus1=p1udt2736lv.1.2 bus2=p1udm9777.1.2 switch=n enabled=y phases=2 Linecode=1P_UG_AL_4/0_Sweetbriar_0_416_0_2_2_2_2

New Line.l(r:p1udt2761lv-p1ulv2941) Units=km Length=0.0152563 bus1=p1udt2761lv.1.2 bus2=p1ulv2941.1.2 switch=n enabled=y phases=2 Linecode=1P_UG_AL_1/0_Brenau_0_416_0_2_2_2_2

New Line.l(r:p1udt2761lv-p1ulv62009) Units=km Length=0.0203922 bus1=p1udt2761lv.1.2 bus2=p1ulv62009.1.2 switch=n enabled=y phases=2 Linecode=1P_UG_AL_1/0_Brenau_0_416_0_2_2_2_2

New Line.l(r:p1udt2761lv-p1ulv65186) Units=km Length=0.0142538 bus1=p1udt2761lv.1.2 bus2=p1ulv65186.1.2 switch=n enabled=y phases=2 Linecode=1P_UG_AL_1/0_Brenau_0_416_0_2_2_2_2

New Line.l(r:p1udm9861-p1ulv4814) Units=km Length=0.0193377 bus1=p1udm9861.1.2 bus2=p1ulv4814.1.2 switch=n enabled=y phases=2 Linecode=1P_UG_AL_1/0_Brenau_0_416_0_2_2_2_2

New Line.l(r:p1udm9861-p1udt2761lv) Units=km Length=0.00982211 bus1=p1udt2761lv.1.2 bus2=p1udm9861.1.2 switch=n enabled=y phases=2 Linecode=1P_UG_AL_1/0_Brenau_0_416_0_2_2_2_2

New Line.l(r:p1udm9862-p1ulv15408) Units=km Length=0.0168684 bus1=p1udm9862.1.2 bus2=p1ulv15408.1.2 switch=n enabled=y phases=2 Linecode=1P_UG_AL_1/0_Brenau_0_416_0_2_2_2_2

New Line.l(r:p1udm9862-p1udt2761lv) Units=km Length=0.009824050000000003 bus1=p1udt2761lv.1.2 bus2=p1udm9862.1.2 switch=n enabled=y phases=2 Linecode=1P_UG_AL_1/0_Brenau_0_416_0_2_2_2_2

New Line.l(r:p1udt2765lv-p1ulv52825) Units=km Length=0.015586 bus1=p1udt2765lv.1.2 bus2=p1ulv52825.1.2 switch=n enabled=y phases=2 Linecode=1P_UG_AL_1/0_Brenau_0_416_0_2_2_2_2

New Line.l(r:p1udt2765lv-p1ulv63295) Units=km Length=0.012717 bus1=p1udt2765lv.1.2 bus2=p1ulv63295.1.2 switch=n enabled=y phases=2 Linecode=1P_UG_AL_1/0_Brenau_0_416_0_2_2_2_2

New Line.l(r:p1udm9876-p1ulv2946) Units=km Length=0.0155989 bus1=p1udm9876.1.2 bus2=p1ulv2946.1.2 switch=n enabled=y phases=2 Linecode=1P_UG_AL_1/0_Brenau_0_416_0_2_2_2_2
