  111180 'GENROU' 1  7.850000  0.066700  0.501400  0.066700  5.000000  0.000000  2.000000
  1.885300  0.430500  0.708200  0.373600  0.293400  0.150500  0.446400  /
  111180 'ESST4B' 1  0  3.9769  3.9769  1  -1  0  1  0  1  -1  0  5.2635  0  6.3836  0.08  0  0  /
  111180 'GGOV1' 1  1  1  0.04  1  0.05  -0.05  20.5546  2  0  1  1  0.15  0.5  1.5  0.1266  0.1  0  0  3  1  1  1  0  1  -1  0  0.01  10  0.1  895.2  0  4  5  99  -99  /
  111180 'IEEEST' 1  1  0  1.013  0.013  0  0  1.013  0.113  0  0.02  0  0  1.65  1.65  3  0.1  -0.1  0  0  /
  111181 'GENROU' 1  9.461900  0.069100  1.245100  0.091100  5.000000  0.000000  2.000000
  1.885300  0.265700  0.480500  0.140800  0.107800  0.141700  0.525200  /
  111181 'ESST4B' 1  0  3.0648  3.0648  1  -1  0  1  0  1  -1  0  5.6586  0  7.5669  0.08  0  0  /
  111181 'GGOV1' 1  1  1  0.04  1  0.05  -0.05  24.9751  2  0  1  1  0.15  0.5  2.3968  0.2  0.5  0  0  3  2  0.2  1  0  0.1  -0.1  0  0.01  10  0.1  898.8  0  4  5  99  -99  /
  111181 'IEEEST' 1  1  0  1.013  0.013  0  0  1.013  0.113  0  0.02  0  0  1.65  1.65  3  0.1  -0.1  0  0  /
  111183 'GENROU' 1  7.481800  0.066700  0.550300  0.066700  6.958200  0.000000  1.791200
  1.716800  0.442700  0.653900  0.357100  0.280200  0.146500  0.527700  /
  111183 'ESST4B' 1  0  3.29  3.29  1  -1  0  1  0  1  -1  0  6.5984  0  7.8534  0.08  0  0  /
  111183 'GGOV1' 1  1  1  0.05  1  0.05  -0.05  10  2  0  1  1  0.15  0.2891  1.5  0.2  0.5  0  0  3  1  0.67  1  0  1  -1  0  0.01  10  0.1  64.8  0  4  5  99  -99  /
  111184 'GENROU' 1  6.893600  0.066700  0.895600  0.066700  5.639800  0.000000  1.645900
  1.599600  0.259000  0.465300  0.128900  0.098400  0.080300  0.368600  /
  111184 'EXPIC1' 1  0  3.5  1  1  -0.87  0  0  0  1  -0.87  0  1  0  7.5184  0  0  0  1  0  1.2  0  6.4774  0  0.08  /
  111184 'GGOV1' 1  1  1  0.04  1  0.05  -0.05  10  2  0  1  1  0.15  0.2704  1.5  0.2  0.5  0  0  3  1  0.67  1  0  1  -1  0  0.01  10  0.1  64.8  0  4  5  99  -99  /
  111185 'GENROU' 1  4.911700  0.066700  0.685200  0.068300  2.187600  0.000000  2.523800
  2.308000  0.315600  0.657900  0.273400  0.213500  0.022200  0.346400  /
  111185 'ESST4B' 1  0  3.2602  3.2602  1  -1  0  1  0  1  -1  0  5.1655  0  8.8616  0.08  0  0  /
  111185 'GGOV1' 1  1  1  0.05  1  0.05  -0.05  10  2  0  1  1  0.15  0.5  1.5  0.2  0.5  0  0  3  2  0.2  1  0  0.1  -0.1  0  0.01  10  0.1  64.8  0  4  5  99  -99  /
  111186 'GENROU' 1  8.167300  0.066700  1.132500  0.066700  6.462300  0.000000  1.757900
  1.689900  0.224100  0.538400  0.110000  0.083200  0.224700  0.745900  /
  111186 'ESST4B' 1  0  3.7078  3.7078  1  -1  0  1  0  1  -1  0  6.7208  0  7.1191  0.08  0  0  /
  111186 'GGOV1' 1  1  1  0.04  1  0.05  -0.05  6.7722  2  0  1  1  0.15  0.5  1.4663  0.2  0.5  0  0  3  1  1  1  0  1  -1  0  0.01  10  0.1  60  0  4  5  99  -99  /
  111187 'GENROU' 1  7.287600  0.066700  1.139000  0.066700  4.428500  0.000000  2.185200
  2.034800  0.152600  0.364800  0.125000  0.095200  0.032000  0.271700  /
  111187 'ESST4B' 1  0  3.766  3.766  1  -1  0  1  0  1  -1  0  6.2507  0  7.8365  0.08  0  0  /
  111187 'GGOV1' 1  1  1  0.04  1  0.05  -0.05  14.9427  2  0  1  1  0.15  0.3518  1.3429  0.2  0.1  0  0  3  2  0.67  1  0  1  -1  0  0.01  10  0.1  76.8  0  4  5  99  -99  /
  111188 'GENROU' 1  8.559300  0.066700  1.276400  0.066700  8.001400  0.000000  2.535300
  2.317300  0.294400  0.643800  0.174900  0.135000  0.116000  0.406100  /
  111188 'ESST4B' 1  0  3.3848  3.3848  1  -1  0  1  0  1  -1  0  6.5078  0  8.7623  0.08  0  0  /
  111188 'GGOV1' 1  1  1  0.04  1  0.05  -0.05  3.0016  2  0  1  1  0.15  0.5  1.5  0.2  0.5  0  0  3  1  0.67  1  0  0.1  -0.1  0  0.01  10  0.1  64.8  0  4  5  99  -99  /
  111190 'GENROU' 1  7.202800  0.066700  0.758900  0.066700  5.315300  0.000000  2.176700
  2.027900  0.226600  0.281200  0.165000  0.127200  0.092400  0.460000  /
  111190 'ESST4B' 1  0  3.0664  3.0664  1  -1  0  1  0  1  -1  0  6.4877  0  7.4111  0.08  0  0  /
  111190 'GGOV1' 1  1  1  0.04  1  0.05  -0.05  3.6899  2.7989  0  1  1  0.15  0.5  1.5  0.2  0.1  0  0  3  1  0.2  1  0  0.1  -0.1  0  0.01  10  0.1  124.8  0  4  5  99  -99  /
  111191 'GENROU' 1  6.677600  0.066700  0.559200  0.066700  7.458700  0.000000  1.885900
  1.793200  0.182700  0.210500  0.106900  0.080800  0.100000  0.292300  /
  111191 'EXAC2' 1  0.066667  1  1  1000  0.066667  9.8378  -9.8378  1  29.0988  -29.098801  1.3  4  0  0.49  1  0.1  1.6  1  10  3.0789  0.0084  4.1053  0.0189  /
  111191 'GGOV1' 1  1  1  0.04  1  0.05  -0.05  10  2  0  1  1  0.15  0.5  1.0556  0.2  0.5  0  0  3  1  0.2  1  0  1  -1  0  0.01  10  0.1  124.8  0  4  5  99  -99  /
  111192 'GENROU' 1  8.705200  0.066700  0.480700  0.076200  8.924800  0.000000  1.841000
  1.757000  0.172200  0.216900  0.121700  0.092600  0.248200  0.733500  /
  111192 'ESST4B' 1  0  3.1658  3.1658  1  -1  0  1  0  1  -1  0  6.6833  0  6.5201  0.08  0  0  /
  111192 'GGOV1' 1  1  1  0.04  1  0.05  -0.05  6.8278  7.5982  0  1  1  0.15  0.5  1.5  0.2  0.5  0  0  3  1  1  1  0  1  -1  0  0.01  10  0.1  68.4  0  4  5  99  -99  /
  111193 'GENROU' 1  8.950500  0.066700  1.253700  0.066700  1.837400  0.000000  1.384900
  1.389000  0.169600  0.490800  0.130200  0.099400  0.001400  0.268100  /
  111193 'ESST4B' 1  0  3.5749  3.5749  1  -1  0  1  0  1  -1  0  6.9217  0  6.1918  0.08  0  0  /
  111193 'GGOV1' 1  1  1  0.04  1  0.05  -0.05  8.3191  1.4146  0  1  1  0.15  0.3233  1.5  0.2  0.5  0  0  3  1  1  1  0  0.1  -0.1  0  0.01  10  0.1  68.4  0  4  5  99  -99  /
  111194 'GENROU' 1  4.378700  0.066700  1.264200  0.096100  7.025200  0.000000  1.756300
  1.688600  0.272500  0.571000  0.202700  0.157200  0.239700  0.733600  /
  111194 'EXPIC1' 1  0  3.5  1  1  -0.87  0  0  0  1  -0.87  0  1  0  7.8931  0  0  0  1  0  1.2  0  5.5933  0  0.08  /
  111194 'GGOV1' 1  1  1  0.05  1  0.05  -0.05  10  1.6124  0  1  1  0.15  0.0574  1.5  0.2  0.5  0  0  3  1  0.67  1  0  0.1  -0.1  0  0.01  10  0.1  68.4  0  4  5  99  -99  /
  111195 'GENROU' 1  4.260400  0.066700  1.318300  0.075000  4.424100  0.000000  1.446800
  1.438900  0.294900  0.524300  0.138400  0.105900  0.037200  0.232400  /
  111195 'ESST4B' 1  0  3.0981  3.0981  1  -1  0  1  0  1  -1  0  5.5151  0  7.725  0.08  0  0  /
  111195 'GGOV1' 1  1  1  0.04  1  0.05  -0.05  2.882  6.315  0  1  1  0.15  0.5  1.5849  0.2  0.5  0  0  3  1  1  1  0  1  -1  0  0.01  10  0.1  68.4  0  4  5  99  -99  /
  111196 'GENROU' 1  8.115500  0.066700  0.344900  0.066700  7.053200  0.000000  2.386000
  2.196700  0.239000  0.412400  0.103700  0.078300  0.155000  0.436600  /
  111196 'ESST4B' 1  0  3.1108  3.1108  1  -1  0  1  0  1  -1  0  6.7849  0  7.0307  0.08  0  0  /
  111196 'GGOV1' 1  1  1  0.05  1  0.05  -0.05  10  2  0  1  1  0.15  0.0493  1.5  0.1558  0.1  0  0  3  2  0.67  1  0  0.1  -0.1  0  0.01  10  0.1  68.4  0  4  5  99  -99  /
  111197 'GENROU' 1  9.692700  0.066700  1.090500  0.066700  7.470400  0.000000  1.730600
  1.668000  0.152600  0.327900  0.132400  0.101100  0.110100  0.640700  /
  111197 'ESST4B' 1  0  3.9457  3.9457  1  -1  0  1  0  1  -1  0  5.511  0  6.0037  0.08  0  0  /
  111197 'GGOV1' 1  1  1  0.04  1  0.05  -0.05  3.668  2  0  1  1  0.15  0.5  1.4432  0.2  0.1  0  0  3  1  1  1  0  1  -1  0  0.01  10  0.1  68.4  0  4  5  99  -99  /
  111198 'GENROU' 1  9.360800  0.066700  0.790600  0.066700  5.930000  0.000000  2.348200
  2.166300  0.262700  0.381200  0.137400  0.105100  0.066500  0.197300  /
  111198 'ESST4B' 1  0  3.9854  3.9854  1  -1  0  1  0  1  -1  0  5.4106  0  8.498  0.08  0  0  /
  111198 'GGOV1' 1  1  1  0.05  1  0.05  -0.05  10  2  0  1  1  0.15  0.5  1.1295  0.2  0.1  0  0  3  2  0.2  1  0  0.1  -0.1  0  0.01  10  0.1  68.4  0  4  5  99  -99  /
  111199 'GENROU' 1  5.068900  0.066700  0.393500  0.066700  8.123600  0.000000  2.042900
  1.919900  0.208100  0.357000  0.134600  0.102900  0.159500  0.763000  /
  111199 'ESST4B' 1  0  3.2906  3.2906  1  -1  0  1  0  1  -1  0  6.005  0  8.1937  0.08  0  0  /
  111199 'GGOV1' 1  1  1  0.04  1  0.05  -0.05  10  2  0  1  1  0.15  0.2069  1.5  0.2  0.3  0  0  3  1  1  1  0  0.1  -0.1  0  0.01  10  0.1  68.4  0  4  5  99  -99  /
  111200 'GENROU' 1  8.352000  0.066700  1.159200  0.066700  8.621600  0.000000  1.991100
  1.878100  0.292000  0.625600  0.241000  0.187700  0.098400  0.646700  /
  111200 'ESST4B' 1  0  3.9832  3.9832  1  -1  0  1  0  1  -1  0  5.4311  0  6.0451  0.08  0  0  /
  111200 'GGOV1' 1  1  1  0.04  1  0.05  -0.05  8.4013  1.6054  0  1  1  0.15  0.5  1.5  0.1308  0.5  0  0  3  2  0.2  1  0  0.1  -0.1  0  0.01  10  0.1  69.6  0  4  5  99  -99  /
  111201 'GENROU' 1  9.980100  0.066700  0.745700  0.066700  5.264400  0.000000  2.141300
  1.999300  0.183900  0.202100  0.127900  0.097600  0.116200  0.352700  /
  111201 'ESST4B' 1  0  3.3699  3.3699  1  -1  0  1  0  1  -1  0  6.187  0  8.4266  0.08  0  0  /
  111201 'GGOV1' 1  1  1  0.05  1  0.05  -0.05  10  2  0  1  1  0.15  0.3056  1.5  0.2  0.1  0  0  3  1  0.2  1  0  0.1  -0.1  0  0.01  10  0.1  69.6  0  4  5  99  -99  /
  111202 'GENROU' 1  9.955300  0.066700  1.266100  0.093800  8.648000  0.000000  1.909000
  1.811900  0.377700  0.641200  0.279900  0.218700  0.165700  0.751500  /
  111202 'ESST4B' 1  0  3.0483  3.0483  1  -1  0  1  0  1  -1  0  6.5227  0  7.1598  0.08  0  0  /
  111202 'GGOV1' 1  1  1  0.04  1  0.05  -0.05  9.4259  2  0  1  1  0.15  0.5  2.366  0.2  0.5  0  0  3  1  0.67  1  0  0.1  -0.1  0  0.01  10  0.1  69.6  0  4  5  99  -99  /
  111203 'GENROU' 1  6.612000  0.066700  1.120900  0.066700  3.408400  0.000000  1.729500
  1.667000  0.358500  0.593200  0.287500  0.224800  0.050700  0.333300  /
  111203 'EXAC2' 1  0  1  1  1000  0.066667  8.909  -8.909  1  28.9476  -28.947599  0.55  4  0  0.49  1  0.1  1.6  1  14  3.0938  0.0002  4.1251  0.0104  /
  111203 'GGOV1' 1  1  1  0.04  1  0.05  -0.05  7.7247  2  0  1  1  0.15  0.5  1.5  0.2  0.5  0  0  3  2  0.2  1  0  0.1  -0.1  0  0.01  10  0.1  69.6  0  4  5  99  -99  /
  111204 'GENROU' 1  4.268000  0.066700  0.426900  0.083700  4.503200  0.000000  2.349400
  2.167300  0.424800  0.588800  0.361000  0.283400  0.053000  0.303300  /
  111204 'EXPIC1' 1  0  4  1  1  -0.87  0  0  0  1  -0.87  0  1  0  7.3356  0  0  0  1  0  1.2  0  6.9361  0  0.08  /
  111204 'GGOV1' 1  1  1  0.04  1  0.05  -0.05  1.7992  2  0  1  1  0.15  0.5  1.5  0.2  0.5  0  0  3  2  0.67  1  0  0.1  -0.1  0  0.01  10  0.1  69.6  0  4  5  99  -99  /
  111205 'GENROU' 1  7.009600  0.066700  0.527800  0.070900  2.537100  0.000000  1.809500
  1.731600  0.169100  0.240800  0.115200  0.087500  0.149500  0.751200  /
  111205 'ESST4B' 1  0  3.1098  3.1098  1  -1  0  1  0  1  -1  0  5.3149  0  7.4259  0.08  0  0  /
  111205 'GGOV1' 1  1  1  0.05  1  0.05  -0.05  10  5.4959  0  1  1  0.15  0.5  1.3284  0.1491  0.5  0  0  3  1  0.2  1  0  1  -1  0  0.01  10  0.1  69.6  0  4  5  99  -99  /
  111206 'GENROU' 1  5.087500  0.043700  1.282000  0.022300  4.719800  0.000000  1.890300
  1.796800  0.395000  0.621300  0.234400  0.182500  0.128100  0.395200  /
  111206 'ESST4B' 1  0  3.4814  3.4814  1  -1  0.01  1  0  1  -1  0  5.2078  0  8.0463  0.08  0  0  /
  111206 'GGOV1' 1  1  1  0.04  1  0.05  -0.05  10  2  0  1  1  0.15  0.5  1.5  0.2  0.1  0  0  3  2  1  1  0  0.1  -0.1  0  0.01  10  0.1  15.6  0  4  5  99  -99  /
  111208 'GENROU' 1  4.253100  0.066700  0.999900  0.066700  2.792400  0.000000  1.989300
  1.892100  0.204500  0.347500  0.149500  0.110200  0.128300  3.056500  /
  111208 'EXAC1' 1  0  0  0  400  0.066667  8.104  -8.104  0.4617  0.035  1  0.2774  0.5  1  2.0831  0.0819  2.7774  0.4095  /
  111208 'IEEEG1' 1 0 0  15.9709  0  0  0.5  0.1727  -0.1727  1.3525  0  0.2627  0.2687  0  3.4348  0.626  0  0  0  0  0  0  0  /
  111208 'IEEEST' 1  1  0  1.013  0.013  0  0  1.013  0.113  0  0.02  0  0  1.65  1.65  3  0.1  -0.1  0  0  /
  111209 'GENROU' 1  9.549700  0.066700  1.243100  0.066700  2.039200  0.000000  1.764300
  1.682300  0.315600  0.725800  0.227300  0.170700  0.178000  4.150300  /
  111209 'IEEET1' 1  0  400  0.2  1  -1  0  0.5  0.1136  0.35  0  2.482  0.0488  3.3093  0.3028  /
  111209 'IEEEG1' 1 0 0  20  0.2515  0  0.5  2  -2  0.6642  0  0.1637  0.3431  0  10  0.1837  0  0  0  0  0  0  0  /
  111209 'IEEEST' 1  1  0  1.013  0.013  0  0  1.013  0.113  0  0.02  0  0  1.65  1.65  3  0.1  -0.1  0  0  /
  111210 'GENROU' 1  9.357200  0.043500  1.456000  0.069200  3.145800  0.000000  2.051100
  1.949600  0.453900  0.336100  0.324300  0.245900  0.112500  2.709300  /
  111210 'ESST4B' 1  0  35.2053  3.7712  6  -6  0.01  1  0  4.6  -4.6  0  5.2881  0  6.1493  0.0625  0  0  /
  111210 'IEEEG1' 1 0 0  20  0.2168  0  0.15  0.1742  -0.1742  1.0622  0  0.2256  0.2508  0  0  0.4  0  0  0  0  0  0  0  /
  111210 'IEEEST' 1  1  0  1.013  0.013  0  0  1.013  0.113  0  0.02  0  0  1.65  1.65  3  0.1  -0.1  0  0  /
  111211 'GENROU' 1  7.331800  0.044900  1.423900  0.078900  3.055400  0.000000  1.909000
  1.817200  0.273000  0.262400  0.197500  0.147500  0.043800  1.198500  /
  111211 'ESAC1A' 1  0  0  0  280.463  0.02  16.5957  -16.595699  1.0339  0.0162  1  0.2  1  1  1.5823  0.0919  2.1097  0.827  9  -9  /
  111211 'IEEEG1' 1 0 0  20  0  0  0.2  0.4193  -0.4193  0.5577  0  0.3352  1  0  1.9336  0.3432  0  0  0  0  0  0  0  /
  111211 'IEEEST' 1  1  0  1.013  0.013  0  0  1.013  0.113  0  0.02  0  0  1.65  1.65  3  0.1  -0.1  0  0  /
  111212 'GENROU' 1  6.055000  0.039100  0.925900  0.027700  6.718400  0.000000  1.843800
  1.759300  0.218000  0.295200  0.101200  0.076200  0.097000  0.268500  /
  111212 'EXAC2' 1  0.01  1  1  400  0.01  10.1384  -10.1384  1  28.6683  -28.668301  0.55  4  0  0.0182  1  0.1  0.8  1  10  3.1303  0.0025  4.1737  0.0128  /
  111212 'GGOV1' 1  1  1  0.04  1  0.05  -0.05  10  1.2542  0  1  1  0.15  0.4005  1.0698  0.2  0.1  0  0  3  1  1  1  0  0.1  -0.1  0  0.01  10  0.1  15.6  0  4  5  99  -99  /
  111212 'GENROU' 2  5.419500  0.066700  0.395000  0.066700  5.000000  0.000000  2.028800
  1.908500  0.391300  0.557400  0.309900  0.242600  0.117900  0.448500  /
  111212 'EXPIC1' 2  0  4  1  1  -0.87  0  0  0  1  -0.87  0  1  0  7.3923  0  0  0  1  0  1.2  0  6.8347  0  0.08  /
  111212 'GGOV1' 2  1  1  0.04  1  0.05  -0.05  6.1262  0.9808  0  1  1  0.15  0.192  1.0577  0.2  0.5  0  0  3  1  0.67  1  0  0.1  -0.1  0  0.01  10  0.1  662.4  0  4  5  99  -99  /
  111212 'IEEEST' 2  1  0  1.013  0.013  0  0  1.013  0.113  0  0.02  0  0  1.65  1.65  3  0.1  -0.1  0  0  /
  111213 'GENROU' 1  4.513400  0.066700  1.296000  0.066700  5.001600  0.000000  1.703800
  1.646300  0.281700  0.437100  0.201300  0.156100  0.091600  0.411600  /
  111213 'ESST4B' 1  0  3.6427  3.6427  1  -1  0  1  0  1  -1  0  6.0884  0  7.0055  0.08  0  0  /
  111213 'GGOV1' 1  1  1  0.04  1  0.05  -0.05  8.6995  2  0  1  1  0.15  0.5  1.5  0.2  0.1  0  0  3  1  0.67  1  0  0.1  -0.1  0  0.01  10  0.1  327.6  0  4  5  99  -99  /
  111213 'IEEEST' 1  1  0  1.013  0.013  0  0  1.013  0.113  0  0.02  0  0  1.65  1.65  3  0.1  -0.1  0  0  /
  111214 'GENROU' 1  7.860000  0.066700  1.073500  0.066700  3.553700  0.000000  1.762500
  1.693700  0.302400  0.512800  0.184600  0.142700  0.136900  0.590600  /
  111214 'ESST4B' 1  0  3.0839  3.0839  1  -1  0  1  0  1  -1  0  6.0797  0  8.3019  0.08  0  0  /
  111214 'GGOV1' 1  1  1  0.05  1  0.05  -0.05  6.2642  7.7612  0  1  1  0.15  0.5  1.5  0.2  0.5  0  0  3  2  1  1  0  0.1  -0.1  0  0.01  10  0.1  202.8  0  4  5  99  -99  /
  111214 'IEEEST' 1  1  0  1.013  0.013  0  0  1.013  0.113  0  0.02  0  0  1.65  1.65  3  0.1  -0.1  0  0  /
  111215 'GENROU' 1  9.805600  0.066700  1.219500  0.066700  5.614900  0.000000  1.689500
  1.634800  0.156200  0.366600  0.123300  0.093900  0.077200  0.357100  /
  111215 'EXPIC1' 1  0  3.5  1  1  -0.87  0  0  0  1  -0.87  0  1  0  7.6978  0  0  0  1  0  1.2  0  6.0833  0  0.08  /
  111215 'GGOV1' 1  1  1  0.04  1  0.05  -0.05  10  2  0  1  1  0.15  0.5  1.2817  0.2  0.5  0  0  3  2  0.2  1  0  0.1  -0.1  0  0.01  10  0.1  202.8  0  4  5  99  -99  /
  111215 'IEEEST' 1  1  0  1.013  0.013  0  0  1.013  0.113  0  0.02  0  0  1.65  1.65  3  0.1  -0.1  0  0  /
  111217 'GENROU' 1  6.213700  0.066700  1.161300  0.075800  2.221200  0.000000  2.026100
  1.926300  0.462400  0.523400  0.330200  0.250600  0.133800  3.177900  /
  111217 'IEEET1' 1  0  400  0.2  1  -1  0  0.5431  0.0264  0.35  0  1.7924  0.1224  2.3898  0.3854  /
  111217 'IEEEG1' 1 0 0  20  0.2709  0  0.15  2  -2  0.7458  0  0.2517  0.342  0  6.5528  0.1548  0  0.4  0.3  0  0  0  0  /
  111217 'IEEEST' 1  1  0  1.013  0.013  0  0  1.013  0.113  0  0.02  0  0  1.65  1.65  3  0.1  -0.1  0  0  /
  111218 'GENROU' 1  4.027100  0.066700  1.413900  0.071700  3.462600  0.000000  2.043300
  1.942400  0.286500  0.512300  0.207000  0.154800  0.083600  2.074800  /
  111218 'IEEET1' 1  0  400  0.066667  1  -1  0  0.9855  0.0665  1  0  2.531  0.1424  3.3747  0.4078  /
  111218 'IEEEG1' 1 0 0  20  0.2  0  0.5  0.4584  -0.4584  0.6322  0  0.2652  0.3473  0  8.9272  0.1212  0  0.5  0.4731  0  0  0  0  /
  111218 'IEEEST' 1  1  0  1.013  0.013  0  0  1.013  0.113  0  0.02  0  0  1.65  1.65  3  0.1  -0.1  0  0  /
  111220 'GENROU' 1  5.814400  0.066700  1.096500  0.096400  3.804600  0.000000  2.445200
  2.244500  0.263600  0.485300  0.173400  0.133900  0.054300  0.460700  /
  111220 'ESST4B' 1  0  3.7593  3.7593  1  -1  0  1  0  1  -1  0  5.7677  0  8.5917  0.08  0  0  /
  111220 'GGOV1' 1  1  1  0.04  1  0.05  -0.05  10  3.5977  0  1  1  0.15  0.5  1.9506  0.1658  0.1  0  0  3  2  0.67  1  0  1  -1  0  0.01  10  0.1  97.2  0  4  5  99  -99  /
  111221 'GENROU' 1  9.774100  0.066700  0.307500  0.066700  4.775300  0.000000  2.266400
  2.100300  0.408900  0.626700  0.306600  0.240000  0.133000  0.550900  /
  111221 'ESST4B' 1  0  3.8069  3.8069  1  -1  0  1  0  1  -1  0  6.1867  0  7.0317  0.08  0  0  /
  111221 'GGOV1' 1  1  1  0.05  1  0.05  -0.05  10  2  0  1  1  0.15  0.5  1.5  0.2  0.3  0  0  3  2  0.2  1  0  0.1  -0.1  0  0.01  10  0.1  97.2  0  4  5  99  -99  /
  111223 'GENROU' 1  7.045500  0.063600  1.457700  0.093600  8.514800  0.000000  1.780000
  1.707800  0.236700  0.303600  0.114200  0.086600  0.000300  0.182800  /
  111223 'EXAC2' 1  0.025  1  1  1000  0.01  10.0921  -10.0921  1  23.5787  -23.578699  0.55  4  0  0.0135  1  0.1  1.6  1  14  3.3039  1.0474  4.4051  1.0913  /
  111223 'GGOV1' 1  1  1  0.04  1  0.05  -0.05  10  5.8774  0  1  1  0.15  0.388  1.5  0.2  0.5  0  0  3  2  0.2  1  0  1  -1  0  0.01  10  0.1  36  0  4  5  99  -99  /
  111231 'GENROU' 1  5.362900  0.066700  0.620800  0.066700  8.585000  0.000000  1.600100
  1.562700  0.239500  0.294600  0.116300  0.088300  0.059600  0.211600  /
  111231 'ESST4B' 1  0  3.6014  3.6014  1  -1  0  1  0  1  -1  0  6.644  0  6.5486  0.08  0  0  /
  111231 'GGOV1' 1  1  1  0.04  1  0.05  -0.05  3.3057  2  0  1  1  0.15  0.5  1.5  0.2  0.5  0  0  3  1  0.2  1  0  1  -1  0  0.01  10  0.1  90  0  4  5  99  -99  /
  111232 'GENROU' 1  8.938000  0.066700  0.964700  0.077300  3.166000  0.000000  2.275600
  2.107700  0.188700  0.202000  0.151000  0.115900  0.007000  0.216800  /
  111232 'ESST4B' 1  0  3.4869  3.4869  1  -1  0  1  0  1  -1  0  6.0132  0  8.1511  0.08  0  0  /
  111232 'GGOV1' 1  1  1  0.05  1  0.05  -0.05  26.8518  2  0  1  1  0.15  0.5  1.5689  0.2  0.1  0  0  3  2  0.2  1  0  0.1  -0.1  0  0.01  10  0.1  90  0  4  5  99  -99  /
  111233 'GENROU' 1  8.690000  0.066700  0.633600  0.082700  8.068900  0.000000  1.837400
  1.754100  0.185000  0.283800  0.137800  0.105500  0.139200  0.429600  /
  111233 'ESST4B' 1  0  3.7326  3.7326  1  -1  0  1  0  1  -1  0  6.4003  0  7.9118  0.08  0  0  /
  111233 'GGOV1' 1  1  1  0.04  1  0.05  -0.05  6.345  2  0  1  1  0.15  0.4934  1.5  0.2  0.5  0  0  3  1  0.67  1  0  0.1  -0.1  0  0.01  10  0.1  90  0  4  5  99  -99  /
  111234 'GENROU' 1  5.673500  0.066700  1.356800  0.066700  7.608700  0.000000  1.980100
  1.869200  0.347000  0.463700  0.227300  0.176800  0.183200  0.717900  /
  111234 'ESST4B' 1  0  3.3494  3.3494  1  -1  0  1  0  1  -1  0  6.2344  0  8.8448  0.08  0  0  /
  111234 'GGOV1' 1  1  1  0.04  1  0.05  -0.05  10  2  0  1  1  0.15  0.5  1.5  0.2  0.5  0  0  3  2  0.2  1  0  0.1  -0.1  0  0.01  10  0.1  90  0  4  5  99  -99  /
  111237 'GENROU' 1  7.646100  0.066700  1.411200  0.080100  8.953700  0.000000  2.418600
  2.223100  0.211200  0.420500  0.166900  0.128600  0.048400  0.349400  /
  111237 'ESST4B' 1  0  3.3212  3.3212  1  -1  0  1  0  1  -1  0  5.9601  0  8.3442  0.08  0  0  /
  111237 'GGOV1' 1  1  1  0.04  1  0.05  -0.05  2.4263  2  0  1  1  0.15  0.5  1.5  0.2  0.5  0  0  3  1  0.67  1  0  0.1  -0.1  0  0.01  10  0.1  51  0  4  5  99  -99  /
  111241 'GENROU' 2  9.000100  0.040100  0.793100  0.051100  5.752000  0.000000  1.854900
  1.768200  0.418300  0.657500  0.333300  0.261300  0.223500  0.742000  /
  111241 'ESST4B' 2  0  3.3735  3.3735  1  -1  0.01  1  0  1  -1  0  6.2111  0  8.8035  0.08  0  0  /
  111241 'GGOV1' 2  1  1  0.04  1  0.05  -0.05  10  2  0  1  1  0.15  0.329  1.5  0.2  0.1  0  0  3  2  0.2  1  0  0.1  -0.1  0  0.01  10  0.1  33.6  0  4  5  99  -99  /
  111242 'GENROU' 1  5.856400  0.058300  0.553400  0.028800  1.802600  0.000000  2.317300
  2.141300  0.197300  0.228000  0.115100  0.087300  0.053000  0.426700  /
  111242 'ESST4B' 1  0  3.8476  3.8476  1  -1  0.01  1  0  1  -1  0  6.7  0  7.3734  0.08  0  0  /
  111242 'GGOV1' 1  1  1  0.04  1  0.05  -0.05  10  0.3092  0  1  1  0.15  0.5  1.5  0.1262  0.1  0  0  3  2  0.67  1  0  0.1  -0.1  0  0.01  10  0.1  33.6  0  4  5  99  -99  /
  111242 'GENROU' 2  6.173700  0.056800  0.612700  0.028100  5.310300  0.000000  2.223800
  2.065900  0.257400  0.362500  0.205700  0.159600  0.139800  0.570800  /
  111242 'ESST4B' 2  0  3.8639  3.8639  1  -1  0.01  1  0  1  -1  0  6.6592  0  6.3241  0.08  0  0  /
  111242 'GGOV1' 2  1  1  0.05  1  0.05  -0.05  10  2  0  1  1  0.15  0.5  2.4459  0.2  0.5  0  0  3  2  0.67  1  0  1  -1  0  0.01  10  0.1  21.6  0  4  5  99  -99  /
  111243 'GENROU' 1  7.737100  0.038800  1.322000  0.066400  4.501600  0.000000  1.521200
  1.499000  0.245300  0.287100  0.168500  0.129900  0.039600  0.441100  /
  111243 'ESST4B' 1  0  3.9478  3.9478  1  -1  0.01  1  0  1  -1  0  5.2383  0  8.4557  0.08  0  0  /
  111243 'GGOV1' 1  1  1  0.04  1  0.05  -0.05  11.5772  2  0  1  1  0.15  0.5  1.3917  0.2  0.1  0  0  3  2  0.2  1  0  1  -1  0  0.01  10  0.1  21.6  0  4  5  99  -99  /
  111243 'GENROU' 2  6.457500  0.034200  0.488700  0.088800  2.049900  0.000000  2.245700
  2.083600  0.283700  0.676000  0.138600  0.106100  0.029300  0.409800  /
  111243 'ESST4B' 2  0  3.3534  3.3534  1  -1  0.01  1  0  1  -1  0  6.6994  0  7.3575  0.08  0  0  /
  111243 'GGOV1' 2  1  1  0.04  1  0.05  -0.05  10  2  0  1  1  0.15  0.5  2.3984  0.2  0.5  0  0  3  2  0.2  1  0  0.1  -0.1  0  0.01  10  0.1  21.6  0  4  5  99  -99  /
  111244 'GENROU' 1  5.081600  0.046500  0.753000  0.060100  4.431400  0.000000  2.241600
  2.080200  0.288000  0.386500  0.190200  0.147200  0.089600  0.240000  /
  111244 'EXPIC1' 1  0  3  1  1  -0.87  0.01  0  0  1  -0.87  0  1  0  7.7083  0  0  0  1  0  1.2  0  5.0742  0  0.08  /
  111244 'GGOV1' 1  1  1  0.04  1  0.05  -0.05  20.8147  2  0  1  1  0.15  0.1727  1.5  0.1213  0.5  0  0  3  2  1  1  0  0.1  -0.1  0  0.01  10  0.1  21.6  0  4  5  99  -99  /
  111246 'GENROU' 1  6.377900  0.066700  1.031900  0.066700  3.166200  0.000000  2.183200
  2.033100  0.457100  0.723600  0.292000  0.228400  0.181800  0.583300  /
  111246 'ESST4B' 1  0  3.4615  3.4615  1  -1  0  1  0  1  -1  0  6.5563  0  7.5025  0.08  0  0  /
  111246 'GGOV1' 1  1  1  0.04  1  0.05  -0.05  10  1.1576  0  1  1  0.15  0.5  2.2418  0.2  0.1  0  0  3  2  1  1  0  1  -1  0  0.01  10  0.1  168  0  4  5  99  -99  /
  111246 'IEEEST' 1  1  0  1.013  0.013  0  0  1.013  0.113  0  0.02  0  0  1.65  1.65  3  0.1  -0.1  0  0  /
  111247 'GENROU' 1  4.919000  0.066700  0.444100  0.069900  5.501500  0.000000  1.803700
  1.726900  0.233900  0.599000  0.192100  0.148700  0.106700  0.321900  /
  111247 'EXPIC1' 1  0  3  1  1  -0.87  0  0  0  1  -0.87  0  1  0  7.3153  0  0  0  1  0  1.2  0  6.6854  0  0.08  /
  111247 'GGOV1' 1  1  1  0.05  1  0.05  -0.05  10  1.2955  0  1  1  0.15  0.5  2.4519  0.1842  0.5  0  0  3  1  1  1  0  0.1  -0.1  0  0.01  10  0.1  108  0  4  5  99  -99  /
  111248 'GENROU' 1  4.879000  0.067300  1.367800  0.098500  9.437200  0.000000  1.746100
  1.680400  0.189800  0.346300  0.141700  0.108600  0.091500  0.630300  /
  111248 'EXAC2' 1  0.01  1  1  1000  0.02  9.0134  -9.0134  1  25.7144  -25.714399  0.55  4  0  0.03  1  0.1  0.8  1  14  4.7276  0.0081  3.5457  0.0186  /
  111248 'GGOV1' 1  1  1  0.04  1  0.05  -0.05  10  3.3181  0  1  1  0.15  0.3201  1.5  0.2  0.5  0  0  3  1  0.67  1  0  1  -1  0  0.01  10  0.1  38.4  0  4  5  99  -99  /
  111249 'GENROU' 1  6.298100  0.036400  0.631800  0.090000  7.373000  0.000000  2.190700
  2.039200  0.294300  0.385700  0.157000  0.120700  0.147300  0.595100  /
  111249 'ESST4B' 1  0  3.4803  3.4803  1  -1  0.01  1  0  1  -1  0  5.9192  0  6.9474  0.08  0  0  /
  111249 'GGOV1' 1  1  1  0.05  1  0.05  -0.05  10  2  0  1  1  0.15  0.5  1.7767  0.2  0.1  0  0  3  1  0.67  1  0  0.1  -0.1  0  0.01  10  0.1  38.4  0  4  5  99  -99  /
  111249 'GENROU' 2  8.750600  0.034800  0.706000  0.039200  4.233000  0.000000  2.196400
  2.043800  0.287700  0.556900  0.182600  0.141200  0.158800  0.601700  /
  111249 'EXAC2' 2  0.01  1  1  1000  0.01  100  -100  1  24.0339  -24.033899  1.3  4  0  0.0151  1  0.1  0.8  1  10  3.2964  0.0053  4.3952  0.0157  /
  111249 'GGOV1' 2  1  1  0.04  1  0.05  -0.05  10  4.8419  0  1  1  0.15  0.5  1.5  0.2  0.5  0  0  3  1  0.2  1  0  0.1  -0.1  0  0.01  10  0.1  38.4  0  4  5  99  -99  /
  111251 'GENROU' 1  7.507500  0.066700  0.801200  0.066700  8.144300  0.000000  1.587700
  1.552600  0.212500  0.493700  0.114200  0.086700  0.068400  0.499900  /
  111251 'ESST4B' 1  0  3.9289  3.9289  1  -1  0  1  0  1  -1  0  5.9491  0  8.726  0.08  0  0  /
  111251 'GGOV1' 1  1  1  0.04  1  0.05  -0.05  19.4585  0.7808  0  1  1  0.15  0.5  1.5  0.2  0.1  0  0  3  2  0.2  1  0  0.1  -0.1  0  0.01  10  0.1  79.2  0  4  5  99  -99  /
  111252 'GENROU' 1  9.331300  0.066700  1.091700  0.082000  7.069700  0.000000  1.537200
  1.511800  0.194500  0.334900  0.119100  0.090500  0.227800  0.711500  /
  111252 'ESST4B' 1  0  3.6149  3.6149  1  -1  0  1  0  1  -1  0  5.8838  0  7.2572  0.08  0  0  /
  111252 'GGOV1' 1  1  1  0.04  1  0.05  -0.05  10  0.647  0  1  1  0.15  0.1594  1.5  0.1972  0.1  0  0  3  2  1  1  0  0.1  -0.1  0  0.01  10  0.1  79.2  0  4  5  99  -99  /
  111253 'GENROU' 1  5.325000  0.068800  0.626500  0.096100  7.116500  0.000000  2.602600
  2.371500  0.246600  0.295200  0.118800  0.090300  0.045400  0.337500  /
  111253 'EXPIC1' 1  0  3  1  1  -0.87  0  0  0  1  -0.87  0  1  0  6.7876  0  0  0  1  0  1.2  0  5.7947  0  0.08  /
  111253 'GGOV1' 1  1  1  0.04  1  0.05  -0.05  10  2  0  1  1  0.15  0.5  1.5  0.2  0.3  0  0  3  2  0.67  1  0  1  -1  0  0.01  10  0.1  74.4  0  4  5  99  -99  /
  111254 'GENROU' 1  8.629200  0.066700  0.753000  0.066700  3.789400  0.000000  2.376300
  2.189000  0.224200  0.456200  0.112200  0.085000  0.179600  0.670700  /
  111254 'EXAC2' 1  0  1  1  1000  0.066667  10.5626  -10.5626  1  26.143  -26.143  1.3  4  0  0.49  1  0.1  0.8  1  14  3.2488  0.9914  4.3317  1.0335  /
  111254 'GGOV1' 1  1  1  0.04  1  0.05  -0.05  1.3718  0.3134  0  1  1  0.15  0.5  2.063  0.194  0.5  0  0  3  2  0.67  1  0  1  -1  0  0.01  10  0.1  82.8  0  4  5  99  -99  /
  111260 'GENROU' 1  9.448900  0.066700  1.206300  0.091100  5.657600  0.000000  1.459500
  1.449200  0.237000  0.474800  0.146300  0.112200  0.120200  0.695600  /
  111260 'ESST4B' 1  0  3.5427  3.5427  1  -1  0  1  0  1  -1  0  6.2313  0  7.1218  0.08  0  0  /
  111260 'GGOV1' 1  1  1  0.04  1  0.05  -0.05  10  2  0  1  1  0.15  0.5  1.5  0.178  0.5  0  0  3  1  0.67  1  0  0.1  -0.1  0  0.01  10  0.1  82.8  0  4  5  99  -99  /
  111264 'GENROU' 1  8.213500  0.031300  0.309500  0.060700  4.349600  0.000000  2.052200
  1.927500  0.418800  0.662400  0.333700  0.261600  0.085100  0.193600  /
  111264 'EXPIC1' 1  0  4  1  1  -0.87  0.01  0  0  1  -0.87  0  1  0  7.5924  0  0  0  1  0  1.2  0  5.7716  0  0.08  /
  111264 'GGOV1' 1  1  1  0.04  1  0.05  -0.05  10  1.1571  0  1  1  0.15  0.5  1.5  0.119  0.5  0  0  3  1  0.67  1  0  0.1  -0.1  0  0.01  10  0.1  42  0  4  5  99  -99  /
  111267 'GENROU' 1  8.425300  0.069800  0.369800  0.066700  6.437300  0.000000  2.594500
  2.365000  0.312700  0.676400  0.231600  0.180200  0.068700  0.263600  /
  111267 'ESST4B' 1  0  3.5434  3.5434  1  -1  0  1  0  1  -1  0  6.7399  0  8.452  0.08  0  0  /
  111267 'GGOV1' 1  1  1  0.04  1  0.05  -0.05  10  1.2946  0  1  1  0.15  0.1123  1.5  0.2  0.1  0  0  3  1  0.2  1  0  1  -1  0  0.01  10  0.1  90  0  4  5  99  -99  /
  111268 'GENROU' 1  5.185000  0.066700  0.548700  0.096900  8.569700  0.000000  1.400000
  1.401100  0.197800  0.483700  0.101700  0.076700  0.146800  0.531200  /
  111268 'ESST4B' 1  0  3.024  3.024  1  -1  0  1  0  1  -1  0  5.4528  0  6.8455  0.08  0  0  /
  111268 'GGOV1' 1  1  1  0.04  1  0.05  -0.05  10  2  0  1  1  0.15  0.1763  2.4697  0.2  0.1  0  0  3  1  0.2  1  0  1  -1  0  0.01  10  0.1  84  0  4  5  99  -99  /
  111270 'GENROU' 1  9.691500  0.066700  0.384300  0.066700  6.890500  0.000000  1.678300
  1.625700  0.189500  0.395900  0.161700  0.124500  0.073500  0.191700  /
  111270 'ESST4B' 1  0  3.5224  3.5224  1  -1  0  1  0  1  -1  0  6.7372  0  6.4453  0.08  0  0  /
  111270 'GGOV1' 1  1  1  0.04  1  0.05  -0.05  10  1.1152  0  1  1  0.15  0.5  2.3156  0.1393  0.5  0  0  3  2  0.67  1  0  1  -1  0  0.01  10  0.1  144.12  0  4  5  99  -99  /