New Line.l(r:p5udt8481lv-p5ulv19894) Units=km Length=0.0125362 bus1=p5udt8481lv.1.2 bus2=p5ulv19894.1.2 switch=n enabled=y phases=2 Linecode=1P_OH_AL_2/0_Rucina_0_416_0_2_2_2_2

New Line.l(r:p5udm22787-p5ulv19896) Units=km Length=0.0076488 bus1=p5udm22787.1.2 bus2=p5ulv19896.1.2 switch=n enabled=y phases=2 Linecode=1P_UG_AL_1/0_Brenau_0_416_0_2_2_2_2

New Line.l(r:p5udm22788-p5ulv56138) Units=km Length=0.034924000000000004 bus1=p5udm22788.1.2 bus2=p5ulv56138.1.2 switch=n enabled=y phases=2 Linecode=1P_UG_AL_1/0_Brenau_0_416_0_2_2_2_2

New Line.l(r:p5udm22790-p5ulv66802) Units=km Length=0.00971089 bus1=p5udm22790.1.2 bus2=p5ulv66802.1.2 switch=n enabled=y phases=2 Linecode=1P_UG_AL_1/0_Brenau_0_416_0_2_2_2_2

New Line.l(r:p5udm22788-p5udm22790) Units=km Length=0.009528270000000002 bus1=p5udm22788.1.2 bus2=p5udm22790.1.2 switch=n enabled=y phases=2 Linecode=1P_UG_AL_1/0_Brenau_0_416_0_2_2_2_2

New Line.l(r:p5udm22787-p5udm22788) Units=km Length=0.0095236 bus1=p5udm22787.1.2 bus2=p5udm22788.1.2 switch=n enabled=y phases=2 Linecode=1P_UG_AL_4/0_Sweetbriar_0_416_0_2_2_2_2

New Line.l(r:p5udm22787-p5udt8483lv) Units=km Length=0.009519440000000002 bus1=p5udt8483lv.1.2 bus2=p5udm22787.1.2 switch=n enabled=y phases=2 Linecode=1P_UG_AL_4/0_Sweetbriar_0_416_0_2_2_2_2

New Line.l(r:p5udm22789-p5ulv61803) Units=km Length=0.0491637 bus1=p5udm22789.1.2 bus2=p5ulv61803.1.2 switch=n enabled=y phases=2 Linecode=1P_UG_AL_1/0_Brenau_0_416_0_2_2_2_2

New Line.l(r:p5udm22789-p5ulv71843) Units=km Length=0.0227657 bus1=p5udm22789.1.2 bus2=p5ulv71843.1.2 switch=n enabled=y phases=2 Linecode=1P_UG_AL_1/0_Brenau_0_416_0_2_2_2_2

New Line.l(r:p5udm22789-p5udt8483lv) Units=km Length=0.0190519 bus1=p5udt8483lv.1.2 bus2=p5udm22789.1.2 switch=n enabled=y phases=2 Linecode=1P_UG_AL_1/0_Brenau_0_416_0_2_2_2_2

New Line.l(r:p5udt8484lv-p5ulv19897) Units=km Length=0.0131816 bus1=p5udt8484lv.1.2 bus2=p5ulv19897.1.2 switch=n enabled=y phases=2 Linecode=1P_OH_AL_2/0_Rucina_0_416_0_2_2_2_2

New Line.l(r:p5udm22793-p5ulv55553) Units=km Length=0.0117837 bus1=p5udm22793.1.2 bus2=p5ulv55553.1.2 switch=n enabled=y phases=2 Linecode=1P_OH_AL_2/0_Rucina_0_416_0_2_2_2_2

New Line.l(r:p5udm22793-p5udt8484lv) Units=km Length=0.0161004 bus1=p5udt8484lv.1.2 bus2=p5udm22793.1.2 switch=n enabled=y phases=2 Linecode=1P_OH_AL_2/0_Rucina_0_416_0_2_2_2_2

New Line.l(r:p5udm22798-p5ulv19902) Units=km Length=0.008894790000000001 bus1=p5udm22798.1.2 bus2=p5ulv19902.1.2 switch=n enabled=y phases=2 Linecode=1P_OH_AL_2/0_Rucina_0_416_0_2_2_2_2

New Line.l(r:p5udm22800-p5ulv34358) Units=km Length=0.0155299 bus1=p5udm22800.1.2 bus2=p5ulv34358.1.2 switch=n enabled=y phases=2 Linecode=1P_OH_AL_2/0_Rucina_0_416_0_2_2_2_2

New Line.l(r:p5udm22798-p5udm22800) Units=km Length=0.0173477 bus1=p5udm22798.1.2 bus2=p5udm22800.1.2 switch=n enabled=y phases=2 Linecode=1P_OH_AL_2/0_Rucina_0_416_0_2_2_2_2

New Line.l(r:p5udm22798-p5udt8489lv) Units=km Length=0.0065698200000000005 bus1=p5udt8489lv.1.2 bus2=p5udm22798.1.2 switch=n enabled=y phases=2 Linecode=1P_OH_AL_2/0_Rucina_0_416_0_2_2_2_2

New Line.l(r:p5udm22799-p5ulv21526) Units=km Length=0.016521500000000005 bus1=p5udm22799.1.2 bus2=p5ulv21526.1.2 switch=n enabled=y phases=2 Linecode=1P_OH_AL_2/0_Rucina_0_416_0_2_2_2_2

New Line.l(r:p5udm22799-p5udt8489lv) Units=km Length=0.0253271 bus1=p5udt8489lv.1.2 bus2=p5udm22799.1.2 switch=n enabled=y phases=2 Linecode=1P_OH_AL_2/0_Rucina_0_416_0_2_2_2_2

New Line.l(r:p5udt8987lv-p5ulv20426) Units=km Length=0.00791518 bus1=p5udt8987lv.1.2 bus2=p5ulv20426.1.2 switch=n enabled=y phases=2 Linecode=1P_OH_AL_2/0_Rucina_0_416_0_2_2_2_2

New Line.l(r:p5udt8994lv-p5ulv20433) Units=km Length=0.0170265 bus1=p5udt8994lv.1.2 bus2=p5ulv20433.1.2 switch=n enabled=y phases=2 Linecode=1P_OH_AL_2/0_Rucina_0_416_0_2_2_2_2

New Line.l(r:p5udt8996lv-p5ulv20435) Units=km Length=0.0104335 bus1=p5udt8996lv.1.2 bus2=p5ulv20435.1.2 switch=n enabled=y phases=2 Linecode=1P_OH_AL_2/0_Rucina_0_416_0_2_2_2_2

New Line.l(r:p5udt8998lv-p5ulv20437) Units=km Length=0.0112997 bus1=p5udt8998lv.1.2 bus2=p5ulv20437.1.2 switch=n enabled=y phases=2 Linecode=1P_UG_AL_1/0_Brenau_0_416_0_2_2_2_2

New Line.l(r:p5udt9499lv-p5ulv20976) Units=km Length=0.0325875 bus1=p5udt9499lv.1.2 bus2=p5ulv20976.1.2 switch=n enabled=y phases=2 Linecode=1P_OH_AL_4/0_Zuzara_0_416_0_2_2_2_2

New Line.l(r:p5udt9504lv-p5ulv20981) Units=km Length=0.0132824 bus1=p5udt9504lv.1.2 bus2=p5ulv20981.1.2 switch=n enabled=y phases=2 Linecode=1P_OH_AL_2/0_Rucina_0_416_0_2_2_2_2

New Line.l(r:p5udt9505lv-p5ulv20982) Units=km Length=0.0115322 bus1=p5udt9505lv.1.2 bus2=p5ulv20982.1.2 switch=n enabled=y phases=2 Linecode=1P_OH_AL_2/0_Rucina_0_416_0_2_2_2_2

New Line.l(r:p5udt9506lv-p5ulv42126) Units=km Length=0.0222742 bus1=p5udt9506lv.1.2 bus2=p5ulv42126.1.2 switch=n enabled=y phases=2 Linecode=1P_UG_AL_1/0_Brenau_0_416_0_2_2_2_2

New Line.l(r:p5udm26044-p5ulv20983) Units=km Length=0.0527717 bus1=p5udm26044.1.2 bus2=p5ulv20983.1.2 switch=n enabled=y phases=2 Linecode=1P_UG_AL_1/0_Brenau_0_416_0_2_2_2_2

New Line.l(r:p5udm26047-p5ulv76870) Units=km Length=0.0198252 bus1=p5udm26047.1.2 bus2=p5ulv76870.1.2 switch=n enabled=y phases=2 Linecode=1P_UG_AL_1/0_Brenau_0_416_0_2_2_2_2

New Line.l(r:p5udm26044-p5udm26047) Units=km Length=0.00984124 bus1=p5udm26044.1.2 bus2=p5udm26047.1.2 switch=n enabled=y phases=2 Linecode=1P_UG_AL_1/0_Brenau_0_416_0_2_2_2_2

New Line.l(r:p5udm26044-p5udt9506lv) Units=km Length=0.0196736 bus1=p5udt9506lv.1.2 bus2=p5udm26044.1.2 switch=n enabled=y phases=2 Linecode=1P_UG_AL_4/0_Sweetbriar_0_416_0_2_2_2_2

New Line.l(r:p5udm26045-p5ulv34353) Units=km Length=0.023525000000000004 bus1=p5udm26045.1.2 bus2=p5ulv34353.1.2 switch=n enabled=y phases=2 Linecode=1P_UG_AL_1/0_Brenau_0_416_0_2_2_2_2

New Line.l(r:p5udm26045-p5udt9506lv) Units=km Length=0.0531567 bus1=p5udt9506lv.1.2 bus2=p5udm26045.1.2 switch=n enabled=y phases=2 Linecode=1P_UG_AL_1/0_Brenau_0_416_0_2_2_2_2

New Line.l(r:p5udt9509lv-p5ulv20986) Units=km Length=0.0138344 bus1=p5udt9509lv.1.2 bus2=p5ulv20986.1.2 switch=n enabled=y phases=2 Linecode=1P_UG_AL_1/0_Brenau_0_416_0_2_2_2_2

New Line.l(r:p5udt9509lv-p5ulv37123) Units=km Length=0.013142 bus1=p5udt9509lv.1.2 bus2=p5ulv37123.1.2 switch=n enabled=y phases=2 Linecode=1P_UG_AL_1/0_Brenau_0_416_0_2_2_2_2

New Line.l(r:p5udm26052-p5ulv31075) Units=km Length=0.0210318 bus1=p5udm26052.1.2 bus2=p5ulv31075.1.2 switch=n enabled=y phases=2 Linecode=1P_UG_AL_1/0_Brenau_0_416_0_2_2_2_2

New Line.l(r:p5udm26052-p5ulv46614) Units=km Length=0.015553200000000001 bus1=p5udm26052.1.2 bus2=p5ulv46614.1.2 switch=n enabled=y phases=2 Linecode=1P_UG_AL_1/0_Brenau_0_416_0_2_2_2_2

New Line.l(r:p5udm26056-p5ulv65713) Units=km Length=0.0154426 bus1=p5udm26056.1.2 bus2=p5ulv65713.1.2 switch=n enabled=y phases=2 Linecode=1P_UG_AL_1/0_Brenau_0_416_0_2_2_2_2

New Line.l(r:p5udm26052-p5udm26056) Units=km Length=0.00996386 bus1=p5udm26052.1.2 bus2=p5udm26056.1.2 switch=n enabled=y phases=2 Linecode=1P_UG_AL_1/0_Brenau_0_416_0_2_2_2_2

New Line.l(r:p5udm26052-p5udt9509lv) Units=km Length=0.0198474 bus1=p5udt9509lv.1.2 bus2=p5udm26052.1.2 switch=n enabled=y phases=2 Linecode=1P_UG_AL_4/0_Sweetbriar_0_416_0_2_2_2_2

New Line.l(r:p5udm26055-p5ulv49392) Units=km Length=0.0149013 bus1=p5udm26055.1.2 bus2=p5ulv49392.1.2 switch=n enabled=y phases=2 Linecode=1P_UG_AL_1/0_Brenau_0_416_0_2_2_2_2

New Line.l(r:p5udm26057-p5ulv68458) Units=km Length=0.0132706 bus1=p5udm26057.1.2 bus2=p5ulv68458.1.2 switch=n enabled=y phases=2 Linecode=1P_OH_AL_2/0_Rucina_0_416_0_2_2_2_2

New Line.l(r:p5udm26055-p5udm26057) Units=km Length=0.033190800000000006 bus1=p5udm26055.1.2 bus2=p5udm26057.1.2 switch=n enabled=y phases=2 Linecode=1P_OH_AL_4/0_Zuzara_0_416_0_2_2_2_2

New Line.l(r:p5udm26055-p5udt9509lv) Units=km Length=0.0243344 bus1=p5udt9509lv.1.2 bus2=p5udm26055.1.2 switch=n enabled=y phases=2 Linecode=1P_UG_AL_2/0_Converse_0_416_0_2_2_2_2

New Line.l(r:p5udt9991lv-p5ulv21523) Units=km Length=0.0214941 bus1=p5udt9991lv.1.2 bus2=p5ulv21523.1.2 switch=n enabled=y phases=2 Linecode=1P_OH_AL_2/0_Rucina_0_416_0_2_2_2_2

New Line.l(r:p5udm27648-p5ulv21524) Units=km Length=0.0149396 bus1=p5udm27648.1.2 bus2=p5ulv21524.1.2 switch=n enabled=y phases=2 Linecode=1P_UG_AL_1/0_Brenau_0_416_0_2_2_2_2

New Line.l(r:p5udm27648-p5ulv63513) Units=km Length=0.0113452 bus1=p5udm27648.1.2 bus2=p5ulv63513.1.2 switch=n enabled=y phases=2 Linecode=1P_UG_AL_1/0_Brenau_0_416_0_2_2_2_2

New Line.l(r:p5udm27650-p5ulv24903) Units=km Length=0.0111654 bus1=p5udm27650.1.2 bus2=p5ulv24903.1.2 switch=n enabled=y phases=2 Linecode=1P_UG_AL_1/0_Brenau_0_416_0_2_2_2_2

New Line.l(r:p5udm27650-p5ulv31073) Units=km Length=0.0156319 bus1=p5udm27650.1.2 bus2=p5ulv31073.1.2 switch=n enabled=y phases=2 Linecode=1P_UG_AL_1/0_Brenau_0_416_0_2_2_2_2

New Line.l(r:p5udm27648-p5udm27650) Units=km Length=0.00996773 bus1=p5udm27648.1.2 bus2=p5udm27650.1.2 switch=n enabled=y phases=2 Linecode=1P_UG_AL_4/0_Sweetbriar_0_416_0_2_2_2_2

New Line.l(r:p5udm27648-p5udt9992lv) Units=km Length=0.00996773 bus1=p5udt9992lv.1.2 bus2=p5udm27648.1.2 switch=n enabled=y phases=2 Linecode=1P_UG_AL_4/0_Sweetbriar_0_416_0_2_2_2_2

New Line.l(r:p5udm27649-p5ulv24902) Units=km Length=0.0108308 bus1=p5udm27649.1.2 bus2=p5ulv24902.1.2 switch=n enabled=y phases=2 Linecode=1P_UG_AL_1/0_Brenau_0_416_0_2_2_2_2

New Line.l(r:p5udm27652-p5ulv58958) Units=km Length=0.0121422 bus1=p5udm27652.1.2 bus2=p5ulv58958.1.2 switch=n enabled=y phases=2 Linecode=1P_UG_AL_1/0_Brenau_0_416_0_2_2_2_2

New Line.l(r:p5udm27649-p5udm27652) Units=km Length=0.00996773 bus1=p5udm27649.1.2 bus2=p5udm27652.1.2 switch=n enabled=y phases=2 Linecode=1P_UG_AL_1/0_Brenau_0_416_0_2_2_2_2

New Line.l(r:p5udm27649-p5udt9992lv) Units=km Length=0.00996773 bus1=p5udt9992lv.1.2 bus2=p5udm27649.1.2 switch=n enabled=y phases=2 Linecode=1P_UG_AL_4/0_Sweetbriar_0_416_0_2_2_2_2

New Line.l(r:p5udt9993lv-p5ulv21525) Units=km Length=0.0150182 bus1=p5udt9993lv.1.2 bus2=p5ulv21525.1.2 switch=n enabled=y phases=2 Linecode=1P_UG_AL_1/0_Brenau_0_416_0_2_2_2_2

New Line.l(r:p5udt9993lv-p5ulv22629) Units=km Length=0.0146016 bus1=p5udt9993lv.1.2 bus2=p5ulv22629.1.2 switch=n enabled=y phases=2 Linecode=1P_UG_AL_1/0_Brenau_0_416_0_2_2_2_2

New Line.l(r:p5udt9993lv-p5ulv75184) Units=km Length=0.0134082 bus1=p5udt9993lv.1.2 bus2=p5ulv75184.1.2 switch=n enabled=y phases=2 Linecode=1P_UG_AL_1/0_Brenau_0_416_0_2_2_2_2

New Line.l(r:p5udm27656-p5ulv23193) Units=km Length=0.0153114 bus1=p5udm27656.1.2 bus2=p5ulv23193.1.2 switch=n enabled=y phases=2 Linecode=1P_UG_AL_1/0_Brenau_0_416_0_2_2_2_2

New Line.l(r:p5udm27657-p5ulv38266) Units=km Length=0.0130529 bus1=p5udm27657.1.2 bus2=p5ulv38266.1.2 switch=n enabled=y phases=2 Linecode=1P_UG_AL_1/0_Brenau_0_416_0_2_2_2_2

New Line.l(r:p5udm27656-p5udm27657) Units=km Length=0.00994159 bus1=p5udm27656.1.2 bus2=p5udm27657.1.2 switch=n enabled=y phases=2 Linecode=1P_UG_AL_1/0_Brenau_0_416_0_2_2_2_2

New Line.l(r:p5udm27656-p5udt9993lv) Units=km Length=0.0099371 bus1=p5udt9993lv.1.2 bus2=p5udm27656.1.2 switch=n enabled=y phases=2 Linecode=1P_UG_AL_4/0_Sweetbriar_0_416_0_2_2_2_2

New Line.l(r:p5udm27658-p5ulv62940) Units=km Length=0.0111081 bus1=p5udm27658.1.2 bus2=p5ulv62940.1.2 switch=n enabled=y phases=2 Linecode=1P_UG_AL_1/0_Brenau_0_416_0_2_2_2_2

New Line.l(r:p5udm27658-p5udt9993lv) Units=km Length=0.0397708 bus1=p5udt9993lv.1.2 bus2=p5udm27658.1.2 switch=n enabled=y phases=2 Linecode=1P_UG_AL_1/0_Brenau_0_416_0_2_2_2_2

New Line.l(r:p5udt10483lv-p5ulv22073) Units=km Length=0.0131571 bus1=p5udt10483lv.1.2 bus2=p5ulv22073.1.2 switch=n enabled=y phases=2 Linecode=1P_UG_AL_4/0_Sweetbriar_0_416_0_2_2_2_2

New Line.l(r:p5udt10486lv-p5ulv22076) Units=km Length=0.0293933 bus1=p5udt10486lv.1.2 bus2=p5ulv22076.1.2 switch=n enabled=y phases=2 Linecode=1P_OH_AL_4/0_Zuzara_0_416_0_2_2_2_2

New Line.l(r:p5udt10486lv-p5ulv61801) Units=km Length=0.0121862 bus1=p5udt10486lv.1.2 bus2=p5ulv61801.1.2 switch=n enabled=y phases=2 Linecode=1P_OH_AL_2/0_Rucina_0_416_0_2_2_2_2

New Line.l(r:p5udt10972lv-p5ulv22626) Units=km Length=0.00146479 bus1=p5udt10972lv.1.2 bus2=p5ulv22626.1.2 switch=n enabled=y phases=2 Linecode=1P_OH_AL_4_Periwinkle_0_416_0_2_2_2_2

New Line.l(r:p5udt10974lv-p5ulv40982) Units=km Length=0.0153987 bus1=p5udt10974lv.1.2 bus2=p5ulv40982.1.2 switch=n enabled=y phases=2 Linecode=1P_UG_AL_1/0_Brenau_0_416_0_2_2_2_2

New Line.l(r:p5udm30742-p5ulv36004) Units=km Length=0.0158506 bus1=p5udm30742.1.2 bus2=p5ulv36004.1.2 switch=n enabled=y phases=2 Linecode=1P_UG_AL_4/0_Sweetbriar_0_416_0_2_2_2_2

New Line.l(r:p5udm30741-p5ulv22628) Units=km Length=0.0155455 bus1=p5udm30741.1.2 bus2=p5ulv22628.1.2 switch=n enabled=y phases=2 Linecode=1P_UG_AL_2/0_Converse_0_416_0_2_2_2_2

New Line.l(r:p5udm30741-p5udm30742) Units=km Length=0.00995635 bus1=p5udm30742.1.2 bus2=p5udm30741.1.2 switch=n enabled=y phases=2 Linecode=1P_UG_AL_2/0_Converse_0_416_0_2_2_2_2

New Line.l(r:p5udm30742-p5udt10974lv) Units=km Length=0.00995635 bus1=p5udt10974lv.1.2 bus2=p5udm30742.1.2 switch=n enabled=y phases=2 Linecode=1P_UG_AL_4/0_Sweetbriar_0_416_0_2_2_2_2

New Line.l(r:p5udm30744-p5ulv55551) Units=km Length=0.0151515 bus1=p5udm30744.1.2 bus2=p5ulv55551.1.2 switch=n enabled=y phases=2 Linecode=1P_UG_AL_1/0_Brenau_0_416_0_2_2_2_2

New Line.l(r:p5udm30744-p5udt10974lv) Units=km Length=0.00996061 bus1=p5udt10974lv.1.2 bus2=p5udm30744.1.2 switch=n enabled=y phases=2 Linecode=1P_UG_AL_1/0_Brenau_0_416_0_2_2_2_2

New Line.l(r:p5udt10975lv-p5ulv22630) Units=km Length=0.0183735 bus1=p5udt10975lv.1.2 bus2=p5ulv22630.1.2 switch=n enabled=y phases=2 Linecode=1P_OH_AL_2/0_Rucina_0_416_0_2_2_2_2

New Line.l(r:p5udt10975lv-p5ulv33799) Units=km Length=0.0357569 bus1=p5udt10975lv.1.2 bus2=p5ulv33799.1.2 switch=n enabled=y phases=2 Linecode=1P_OH_AL_4/0_Zuzara_0_416_0_2_2_2_2

New Line.l(r:p5udt10975lv-p5ulv75742) Units=km Length=0.0143416 bus1=p5udt10975lv.1.2 bus2=p5ulv75742.1.2 switch=n enabled=y phases=2 Linecode=1P_OH_AL_2/0_Rucina_0_416_0_2_2_2_2

New Line.l(r:p5udt10977lv-p5ulv22632) Units=km Length=0.0322162 bus1=p5udt10977lv.1.2 bus2=p5ulv22632.1.2 switch=n enabled=y phases=2 Linecode=1P_UG_AL_1/0_Brenau_0_416_0_2_2_2_2

New Line.l(r:p5udt11468lv-p5ulv23189) Units=km Length=0.0100904 bus1=p5udt11468lv.1.2 bus2=p5ulv23189.1.2 switch=n enabled=y phases=2 Linecode=1P_OH_AL_2/0_Rucina_0_416_0_2_2_2_2

New Line.l(r:p5udm32334-p5ulv28868) Units=km Length=0.012654800000000003 bus1=p5udm32334.1.2 bus2=p5ulv28868.1.2 switch=n enabled=y phases=2 Linecode=1P_OH_AL_2/0_Rucina_0_416_0_2_2_2_2

New Line.l(r:p5udm32334-p5udt11468lv) Units=km Length=0.0192573 bus1=p5udt11468lv.1.2 bus2=p5udm32334.1.2 switch=n enabled=y phases=2 Linecode=1P_OH_AL_2/0_Rucina_0_416_0_2_2_2_2

New Line.l(r:p5udm32335-p5ulv23190) Units=km Length=0.020428700000000004 bus1=p5udm32335.1.2 bus2=p5ulv23190.1.2 switch=n enabled=y phases=2 Linecode=1P_UG_AL_1/0_Brenau_0_416_0_2_2_2_2

New Line.l(r:p5udm32335-p5udt11469lv) Units=km Length=0.00984124 bus1=p5udt11469lv.1.2 bus2=p5udm32335.1.2 switch=n enabled=y phases=2 Linecode=1P_UG_AL_1/0_Brenau_0_416_0_2_2_2_2

New Line.l(r:p5udm32336-p5ulv47118) Units=km Length=0.00630206 bus1=p5udm32336.1.2 bus2=p5ulv47118.1.2 switch=n enabled=y phases=2 Linecode=1P_OH_AL_2/0_Rucina_0_416_0_2_2_2_2

New Line.l(r:p5udm32336-p5udt11469lv) Units=km Length=0.0465988 bus1=p5udt11469lv.1.2 bus2=p5udm32336.1.2 switch=n enabled=y phases=2 Linecode=1P_OH_AL_4/0_Zuzara_0_416_0_2_2_2_2

New Line.l(r:p5udm32338-p5ulv23192) Units=km Length=0.0164786 bus1=p5udm32338.1.2 bus2=p5ulv23192.1.2 switch=n enabled=y phases=2 Linecode=1P_UG_AL_1/0_Brenau_0_416_0_2_2_2_2

New Line.l(r:p5udm32338-p5udt11471lv) Units=km Length=0.019917 bus1=p5udt11471lv.1.2 bus2=p5udm32338.1.2 switch=n enabled=y phases=2 Linecode=1P_UG_AL_1/0_Brenau_0_416_0_2_2_2_2

New Line.l(r:p5udm32340-p5ulv56142) Units=km Length=0.014649100000000002 bus1=p5udm32340.1.2 bus2=p5ulv56142.1.2 switch=n enabled=y phases=2 Linecode=1P_UG_AL_4/0_Sweetbriar_0_416_0_2_2_2_2

New Line.l(r:p5udm32339-p5ulv51640) Units=km Length=0.0139754 bus1=p5udm32339.1.2 bus2=p5ulv51640.1.2 switch=n enabled=y phases=2 Linecode=1P_UG_AL_1/0_Brenau_0_416_0_2_2_2_2

New Line.l(r:p5udm32339-p5udm32340) Units=km Length=0.007541810000000001 bus1=p5udm32340.1.2 bus2=p5udm32339.1.2 switch=n enabled=y phases=2 Linecode=1P_UG_AL_1/0_Brenau_0_416_0_2_2_2_2

New Line.l(r:p5udm32340-p5udt11471lv) Units=km Length=0.00995635 bus1=p5udt11471lv.1.2 bus2=p5udm32340.1.2 switch=n enabled=y phases=2 Linecode=1P_UG_AL_4/0_Sweetbriar_0_416_0_2_2_2_2

New Line.l(r:p5udt11472lv-p5ulv70739) Units=km Length=0.0130648 bus1=p5udt11472lv.1.2 bus2=p5ulv70739.1.2 switch=n enabled=y phases=2 Linecode=1P_UG_AL_1/0_Brenau_0_416_0_2_2_2_2

New Line.l(r:p5udm32341-p5ulv23194) Units=km Length=0.014996700000000002 bus1=p5udm32341.1.2 bus2=p5ulv23194.1.2 switch=n enabled=y phases=2 Linecode=1P_UG_AL_1/0_Brenau_0_416_0_2_2_2_2

New Line.l(r:p5udm32341-p5ulv38267) Units=km Length=0.0138708 bus1=p5udm32341.1.2 bus2=p5ulv38267.1.2 switch=n enabled=y phases=2 Linecode=1P_UG_AL_1/0_Brenau_0_416_0_2_2_2_2

New Line.l(r:p5udm32345-p5ulv70170) Units=km Length=0.0150555 bus1=p5udm32345.1.2 bus2=p5ulv70170.1.2 switch=n enabled=y phases=2 Linecode=1P_UG_AL_1/0_Brenau_0_416_0_2_2_2_2

New Line.l(r:p5udm32341-p5udm32345) Units=km Length=0.00953795 bus1=p5udm32341.1.2 bus2=p5udm32345.1.2 switch=n enabled=y phases=2 Linecode=1P_UG_AL_1/0_Brenau_0_416_0_2_2_2_2

New Line.l(r:p5udm32341-p5udt11472lv) Units=km Length=0.00954703 bus1=p5udt11472lv.1.2 bus2=p5udm32341.1.2 switch=n enabled=y phases=2 Linecode=1P_UG_AL_4/0_Sweetbriar_0_416_0_2_2_2_2

New Line.l(r:p5udm32342-p5ulv24901) Units=km Length=0.0134838 bus1=p5udm32342.1.2 bus2=p5ulv24901.1.2 switch=n enabled=y phases=2 Linecode=1P_UG_AL_1/0_Brenau_0_416_0_2_2_2_2

New Line.l(r:p5udm32342-p5ulv36594) Units=km Length=0.013127900000000001 bus1=p5udm32342.1.2 bus2=p5ulv36594.1.2 switch=n enabled=y phases=2 Linecode=1P_UG_AL_1/0_Brenau_0_416_0_2_2_2_2

New Line.l(r:p5udm32342-p5udt11472lv) Units=km Length=0.00953706 bus1=p5udt11472lv.1.2 bus2=p5udm32342.1.2 switch=n enabled=y phases=2 Linecode=1P_UG_AL_2/0_Converse_0_416_0_2_2_2_2

New Line.l(r:p5udm32347-p5ulv23195) Units=km Length=0.0079172 bus1=p5udm32347.1.2 bus2=p5ulv23195.1.2 switch=n enabled=y phases=2 Linecode=1P_UG_AL_1/0_Brenau_0_416_0_2_2_2_2

New Line.l(r:p5udm32348-p5ulv61808) Units=km Length=0.0134903 bus1=p5udm32348.1.2 bus2=p5ulv61808.1.2 switch=n enabled=y phases=2 Linecode=1P_OH_AL_2/0_Rucina_0_416_0_2_2_2_2

New Line.l(r:p5udm32347-p5udm32348) Units=km Length=0.0222704 bus1=p5udm32347.1.2 bus2=p5udm32348.1.2 switch=n enabled=y phases=2 Linecode=1P_OH_AL_2/0_Rucina_0_416_0_2_2_2_2

New Line.l(r:p5udm32347-p5udt11473lv) Units=km Length=0.00673166 bus1=p5udt11473lv.1.2 bus2=p5udm32347.1.2 switch=n enabled=y phases=2 Linecode=1P_UG_AL_4/0_Sweetbriar_0_416_0_2_2_2_2

New Line.l(r:p5udm32349-p5ulv62372) Units=km Length=0.0103335 bus1=p5udm32349.1.2 bus2=p5ulv62372.1.2 switch=n enabled=y phases=2 Linecode=1P_UG_AL_1/0_Brenau_0_416_0_2_2_2_2

New Line.l(r:p5udm32350-p5ulv69625) Units=km Length=0.0126283 bus1=p5udm32350.1.2 bus2=p5ulv69625.1.2 switch=n enabled=y phases=2 Linecode=1P_UG_AL_1/0_Brenau_0_416_0_2_2_2_2

New Line.l(r:p5udm32349-p5udm32350) Units=km Length=0.0099371 bus1=p5udm32349.1.2 bus2=p5udm32350.1.2 switch=n enabled=y phases=2 Linecode=1P_UG_AL_1/0_Brenau_0_416_0_2_2_2_2

New Line.l(r:p5udm32349-p5udt11473lv) Units=km Length=0.006745800000000001 bus1=p5udt11473lv.1.2 bus2=p5udm32349.1.2 switch=n enabled=y phases=2 Linecode=1P_UG_AL_4/0_Sweetbriar_0_416_0_2_2_2_2

New Line.l(r:p5udt11914lv-p5ulv23749) Units=km Length=0.0120168 bus1=p5udt11914lv.1.2 bus2=p5ulv23749.1.2 switch=n enabled=y phases=2 Linecode=1P_OH_AL_2/0_Rucina_0_416_0_2_2_2_2

New Line.l(r:p5udt12392lv-p5ulv24331) Units=km Length=0.00862256 bus1=p5udt12392lv.1.2 bus2=p5ulv24331.1.2 switch=n enabled=y phases=2 Linecode=1P_OH_AL_2/0_Rucina_0_416_0_2_2_2_2

New Line.l(r:p5udt12392lv-p5ulv69007) Units=km Length=0.0109547 bus1=p5udt12392lv.1.2 bus2=p5ulv69007.1.2 switch=n enabled=y phases=2 Linecode=1P_OH_AL_2/0_Rucina_0_416_0_2_2_2_2

New Line.l(r:p5udm35110-p5ulv67892) Units=km Length=0.007245000000000001 bus1=p5udm35110.1.2 bus2=p5ulv67892.1.2 switch=n enabled=y phases=2 Linecode=1P_OH_AL_2/0_Rucina_0_416_0_2_2_2_2

New Line.l(r:p5udm35110-p5udt12392lv) Units=km Length=0.0131493 bus1=p5udt12392lv.1.2 bus2=p5udm35110.1.2 switch=n enabled=y phases=2 Linecode=1P_OH_AL_2/0_Rucina_0_416_0_2_2_2_2

New Line.l(r:p5udt12395lv-p5ulv24336) Units=km Length=0.0190021 bus1=p5udt12395lv.1.2 bus2=p5ulv24336.1.2 switch=n enabled=y phases=2 Linecode=1P_OH_AL_2/0_Rucina_0_416_0_2_2_2_2

New Line.l(r:p5udt12395lv-p5ulv31598) Units=km Length=0.0224119 bus1=p5udt12395lv.1.2 bus2=p5ulv31598.1.2 switch=n enabled=y phases=2 Linecode=1P_OH_AL_2/0_Rucina_0_416_0_2_2_2_2

New Line.l(r:p5udt12395lv-p5ulv39880) Units=km Length=0.00733093 bus1=p5udt12395lv.1.2 bus2=p5ulv39880.1.2 switch=n enabled=y phases=2 Linecode=1P_OH_AL_2/0_Rucina_0_416_0_2_2_2_2

New Line.l(r:p5udm35118-p5ulv34349) Units=km Length=0.0150603 bus1=p5udm35118.1.2 bus2=p5ulv34349.1.2 switch=n enabled=y phases=2 Linecode=1P_OH_AL_2/0_Rucina_0_416_0_2_2_2_2

New Line.l(r:p5udm35118-p5udt12395lv) Units=km Length=0.0162573 bus1=p5udt12395lv.1.2 bus2=p5udm35118.1.2 switch=n enabled=y phases=2 Linecode=1P_OH_AL_2/0_Rucina_0_416_0_2_2_2_2

New Line.l(r:p5udm35120-p5ulv41543) Units=km Length=0.0206286 bus1=p5udm35120.1.2 bus2=p5ulv41543.1.2 switch=n enabled=y phases=2 Linecode=1P_OH_AL_2/0_Rucina_0_416_0_2_2_2_2

New Line.l(r:p5udm35120-p5udt12395lv) Units=km Length=0.0278088 bus1=p5udt12395lv.1.2 bus2=p5udm35120.1.2 switch=n enabled=y phases=2 Linecode=1P_OH_AL_4/0_Zuzara_0_416_0_2_2_2_2

New Line.l(r:p5udt12398lv-p5ulv24339) Units=km Length=0.0145325 bus1=p5udt12398lv.1.2 bus2=p5ulv24339.1.2 switch=n enabled=y phases=2 Linecode=1P_OH_AL_2/0_Rucina_0_416_0_2_1_2_2_2

New Line.l(r:p5udt12401lv-p5ulv24342) Units=km Length=0.0130861 bus1=p5udt12401lv.1.2 bus2=p5ulv24342.1.2 switch=n enabled=y phases=2 Linecode=1P_OH_AL_2/0_Rucina_0_416_0_2_2_2_2

New Line.l(r:p5udt12402lv-p5ulv30516) Units=km Length=0.0162353 bus1=p5udt12402lv.1.2 bus2=p5ulv30516.1.2 switch=n enabled=y phases=2 Linecode=1P_UG_AL_1/0_Brenau_0_416_0_2_2_2_2

New Line.l(r:p5udt12402lv-p5ulv76873) Units=km Length=0.016989400000000005 bus1=p5udt12402lv.1.2 bus2=p5ulv76873.1.2 switch=n enabled=y phases=2 Linecode=1P_UG_AL_1/0_Brenau_0_416_0_2_2_2_2

New Line.l(r:p5udm35130-p5ulv68457) Units=km Length=0.0134053 bus1=p5udm35130.1.2 bus2=p5ulv68457.1.2 switch=n enabled=y phases=2 Linecode=1P_UG_AL_1/0_Brenau_0_416_0_2_2_2_2

New Line.l(r:p5udm35128-p5ulv28307) Units=km Length=0.0127181 bus1=p5udm35128.1.2 bus2=p5ulv28307.1.2 switch=n enabled=y phases=2 Linecode=1P_UG_AL_1/0_Brenau_0_416_0_2_2_2_2

New Line.l(r:p5udm35128-p5udm35130) Units=km Length=0.0162315 bus1=p5udm35130.1.2 bus2=p5udm35128.1.2 switch=n enabled=y phases=2 Linecode=1P_UG_AL_1/0_Brenau_0_416_0_2_2_2_2

New Line.l(r:p5udm35130-p5udt12402lv) Units=km Length=0.00811542 bus1=p5udt12402lv.1.2 bus2=p5udm35130.1.2 switch=n enabled=y phases=2 Linecode=1P_UG_AL_4/0_Sweetbriar_0_416_0_2_2_2_2

New Line.l(r:p5udm35131-p5ulv69015) Units=km Length=0.00954757 bus1=p5udm35131.1.2 bus2=p5ulv69015.1.2 switch=n enabled=y phases=2 Linecode=1P_UG_AL_1/0_Brenau_0_416_0_2_2_2_2

New Line.l(r:p5udm35127-p5ulv24343) Units=km Length=0.013084800000000002 bus1=p5udm35127.1.2 bus2=p5ulv24343.1.2 switch=n enabled=y phases=2 Linecode=1P_UG_AL_1/0_Brenau_0_416_0_2_2_2_2

New Line.l(r:p5udm35127-p5udm35131) Units=km Length=0.008623 bus1=p5udm35131.1.2 bus2=p5udm35127.1.2 switch=n enabled=y phases=2 Linecode=1P_UG_AL_1/0_Brenau_0_416_0_2_2_2_2

New Line.l(r:p5udm35131-p5udt12402lv) Units=km Length=0.008623 bus1=p5udt12402lv.1.2 bus2=p5udm35131.1.2 switch=n enabled=y phases=2 Linecode=1P_UG_AL_4/0_Sweetbriar_0_416_0_2_2_2_2

New Line.l(r:p5udt12841lv-p5ulv29970) Units=km Length=0.0262773 bus1=p5udt12841lv.1.2 bus2=p5ulv29970.1.2 switch=n enabled=y phases=2 Linecode=1P_OH_AL_2/0_Rucina_0_416_0_2_2_2_2

New Line.l(r:p5udm36483-p5ulv24894) Units=km Length=0.0231468 bus1=p5udm36483.1.2 bus2=p5ulv24894.1.2 switch=n enabled=y phases=2 Linecode=1P_OH_AL_2/0_Rucina_0_416_0_2_2_2_2

New Line.l(r:p5udm36483-p5udt12841lv) Units=km Length=0.0144519 bus1=p5udt12841lv.1.2 bus2=p5udm36483.1.2 switch=n enabled=y phases=2 Linecode=1P_OH_AL_2/0_Rucina_0_416_0_2_2_2_2

New Line.l(r:p5udm36485-p5ulv24895) Units=km Length=0.013902200000000002 bus1=p5udm36485.1.2 bus2=p5ulv24895.1.2 switch=n enabled=y phases=2 Linecode=1P_OH_AL_2/0_Rucina_0_416_0_2_2_2_2

New Line.l(r:p5udm36485-p5udt12842lv) Units=km Length=0.0178093 bus1=p5udt12842lv.1.2 bus2=p5udm36485.1.2 switch=n enabled=y phases=2 Linecode=1P_OH_AL_2/0_Rucina_0_416_0_2_2_2_2

New Line.l(r:p5udm36486-p5ulv28302) Units=km Length=0.014465 bus1=p5udm36486.1.2 bus2=p5ulv28302.1.2 switch=n enabled=y phases=2 Linecode=1P_OH_AL_2/0_Rucina_0_416_0_2_2_2_2

New Line.l(r:p5udm36486-p5udt12842lv) Units=km Length=0.0199591 bus1=p5udt12842lv.1.2 bus2=p5udm36486.1.2 switch=n enabled=y phases=2 Linecode=1P_OH_AL_2/0_Rucina_0_416_0_2_2_2_2

New Line.l(r:p5udt12843lv-p5ulv24896) Units=km Length=0.0145666 bus1=p5udt12843lv.1.2 bus2=p5ulv24896.1.2 switch=n enabled=y phases=2 Linecode=1P_OH_AL_2/0_Rucina_0_416_0_2_2_2_2

New Line.l(r:p5udt12843lv-p5ulv31600) Units=km Length=0.0315032 bus1=p5udt12843lv.1.2 bus2=p5ulv31600.1.2 switch=n enabled=y phases=2 Linecode=1P_OH_AL_4/0_Zuzara_0_416_0_2_2_2_2

New Line.l(r:p5udt12844lv-p5ulv24897) Units=km Length=0.00570148 bus1=p5udt12844lv.1.2 bus2=p5ulv24897.1.2 switch=n enabled=y phases=2 Linecode=1P_OH_AL_2/0_Rucina_0_416_0_2_2_2_2

New Line.l(r:p5udm36490-p5ulv56139) Units=km Length=0.03377410000000001 bus1=p5udm36490.1.2 bus2=p5ulv56139.1.2 switch=n enabled=y phases=2 Linecode=1P_OH_AL_4/0_Zuzara_0_416_0_2_2_2_2

New Line.l(r:p5udm36490-p5udt12844lv) Units=km Length=0.0171329 bus1=p5udt12844lv.1.2 bus2=p5udm36490.1.2 switch=n enabled=y phases=2 Linecode=1P_OH_AL_2/0_Rucina_0_416_0_2_2_2_2

New Line.l(r:p5udt12845lv-p5ulv52224) Units=km Length=0.0248907 bus1=p5udt12845lv.1.2 bus2=p5ulv52224.1.2 switch=n enabled=y phases=2 Linecode=1P_UG_AL_2/0_Converse_0_416_0_2_2_2_2

New Line.l(r:p5udm36491-p5ulv24898) Units=km Length=0.013338200000000001 bus1=p5udm36491.1.2 bus2=p5ulv24898.1.2 switch=n enabled=y phases=2 Linecode=1P_UG_AL_1/0_Brenau_0_416_0_2_2_2_2

New Line.l(r:p5udm36491-p5udt12845lv) Units=km Length=0.009782120000000002 bus1=p5udt12845lv.1.2 bus2=p5udm36491.1.2 switch=n enabled=y phases=2 Linecode=1P_UG_AL_1/0_Brenau_0_416_0_2_2_2_2

New Line.l(r:p5udm36493-p5ulv57833) Units=km Length=0.0187394 bus1=p5udm36493.1.2 bus2=p5ulv57833.1.2 switch=n enabled=y phases=2 Linecode=1P_UG_AL_1/0_Brenau_0_416_0_2_2_2_2

New Line.l(r:p5udm36493-p5udt12845lv) Units=km Length=0.0195646 bus1=p5udt12845lv.1.2 bus2=p5udm36493.1.2 switch=n enabled=y phases=2 Linecode=1P_UG_AL_1/0_Brenau_0_416_0_2_2_2_2

New Line.l(r:p5udm36494-p5ulv24899) Units=km Length=0.0128884 bus1=p5udm36494.1.2 bus2=p5ulv24899.1.2 switch=n enabled=y phases=2 Linecode=1P_OH_AL_2/0_Rucina_0_416_0_2_2_2_2

New Line.l(r:p5udm36494-p5udt12846lv) Units=km Length=0.0416051 bus1=p5udt12846lv.1.2 bus2=p5udm36494.1.2 switch=n enabled=y phases=2 Linecode=1P_OH_AL_4/0_Zuzara_0_416_0_2_2_2_2

New Line.l(r:p5udm36496-p5ulv42128) Units=km Length=0.0143079 bus1=p5udm36496.1.2 bus2=p5ulv42128.1.2 switch=n enabled=y phases=2 Linecode=1P_OH_AL_2/0_Rucina_0_416_0_2_2_2_2

New Line.l(r:p5udm36495-p5ulv29972) Units=km Length=0.0107123 bus1=p5udm36495.1.2 bus2=p5ulv29972.1.2 switch=n enabled=y phases=2 Linecode=1P_OH_AL_2/0_Rucina_0_416_0_2_2_2_2

New Line.l(r:p5udm36495-p5udm36496) Units=km Length=0.015181900000000002 bus1=p5udm36496.1.2 bus2=p5udm36495.1.2 switch=n enabled=y phases=2 Linecode=1P_OH_AL_2/0_Rucina_0_416_0_2_2_2_2

New Line.l(r:p5udm36496-p5udt12846lv) Units=km Length=0.0239271 bus1=p5udt12846lv.1.2 bus2=p5udm36496.1.2 switch=n enabled=y phases=2 Linecode=1P_OH_AL_2/0_Rucina_0_416_0_2_2_2_2

New Line.l(r:p5udt12847lv-p5ulv56724) Units=km Length=0.015496 bus1=p5udt12847lv.1.2 bus2=p5ulv56724.1.2 switch=n enabled=y phases=2 Linecode=1P_UG_AL_1/0_Brenau_0_416_0_2_2_2_2

New Line.l(r:p5udm36497-p5ulv24900) Units=km Length=0.012938000000000002 bus1=p5udm36497.1.2 bus2=p5ulv24900.1.2 switch=n enabled=y phases=2 Linecode=1P_UG_AL_1/0_Brenau_0_416_0_2_2_2_2

New Line.l(r:p5udm36497-p5udt12847lv) Units=km Length=0.00995053 bus1=p5udt12847lv.1.2 bus2=p5udm36497.1.2 switch=n enabled=y phases=2 Linecode=1P_UG_AL_1/0_Brenau_0_416_0_2_2_2_2

New Line.l(r:p5udt13272lv-p5ulv25458) Units=km Length=0.0177018 bus1=p5udt13272lv.1.2 bus2=p5ulv25458.1.2 switch=n enabled=y phases=2 Linecode=1P_OH_AL_2/0_Rucina_0_416_0_2_2_2_2

New Line.l(r:p5udt13276lv-p5ulv25462) Units=km Length=0.0119173 bus1=p5udt13276lv.1.2 bus2=p5ulv25462.1.2 switch=n enabled=y phases=2 Linecode=1P_OH_AL_2/0_Rucina_0_416_0_2_2_2_2

New Line.l(r:p5udt13280lv-p5ulv25466) Units=km Length=0.0175555 bus1=p5udt13280lv.1.2 bus2=p5ulv25466.1.2 switch=n enabled=y phases=2 Linecode=1P_UG_AL_1/0_Brenau_0_416_0_2_2_2_2

New Line.l(r:p5udt13280lv-p5ulv58953) Units=km Length=0.0252375 bus1=p5udt13280lv.1.2 bus2=p5ulv58953.1.2 switch=n enabled=y phases=2 Linecode=1P_UG_AL_1/0_Brenau_0_416_0_2_2_2_2

New Line.l(r:p5udm37759-p5ulv43239) Units=km Length=0.025327500000000003 bus1=p5udm37759.1.2 bus2=p5ulv43239.1.2 switch=n enabled=y phases=2 Linecode=1P_UG_AL_1/0_Brenau_0_416_0_2_2_2_2

New Line.l(r:p5udm37759-p5udt13280lv) Units=km Length=0.00978675 bus1=p5udt13280lv.1.2 bus2=p5udm37759.1.2 switch=n enabled=y phases=2 Linecode=1P_UG_AL_1/0_Brenau_0_416_0_2_2_2_2

New Line.l(r:p5udt13281lv-p5ulv25467) Units=km Length=0.0300125 bus1=p5udt13281lv.1.2 bus2=p5ulv25467.1.2 switch=n enabled=y phases=2 Linecode=1P_UG_AL_1/0_Brenau_0_416_0_2_2_2_2
