New Load.load_p4ulv176 conn=wye bus1=p4ulv176.1.2 kV=0.2080002494301389 Vminpu=0.8 Vmaxpu=1.2 model=1 kW=7.05007 kvar=1.4315777715759745 Phases=2

New Load.load_p4ulv179 conn=wye bus1=p4ulv179.1.2 kV=0.2080002494301389 Vminpu=0.8 Vmaxpu=1.2 model=1 kW=4.96005 kvar=1.0097734632697801 Phases=2

New Load.load_p4ulv180 conn=wye bus1=p4ulv180.1.2 kV=0.2080002494301389 Vminpu=0.8 Vmaxpu=1.2 model=1 kW=5.68006 kvar=1.1504099629613984 Phases=2

New Load.load_p4ulv181 conn=wye bus1=p4ulv181.1.2 kV=0.2080002494301389 Vminpu=0.8 Vmaxpu=1.2 model=1 kW=5.640060000000001 kvar=1.1393473568412724 Phases=2

New Load.load_p4ulv184 conn=wye bus1=p4ulv184.1.2 kV=0.2080002494301389 Vminpu=0.8 Vmaxpu=1.2 model=1 kW=9.5501 kvar=1.9392305149208044 Phases=2

New Load.load_p4ulv187 conn=wye bus1=p4ulv187.1.2 kV=0.2080002494301389 Vminpu=0.8 Vmaxpu=1.2 model=1 kW=4.83005 kvar=0.9807834837952725 Phases=2

New Load.load_p4ulv188 conn=wye bus1=p4ulv188.1.2 kV=0.2080002494301389 Vminpu=0.8 Vmaxpu=1.2 model=1 kW=6.60007 kvar=1.3402013742906727 Phases=2

New Load.load_p4ulv189 conn=wye bus1=p4ulv189.1.2 kV=0.2080002494301389 Vminpu=0.8 Vmaxpu=1.2 model=1 kW=5.460050000000001 kvar=1.1087104399946952 Phases=2

New Load.load_p4ulv190 conn=wye bus1=p4ulv190.1.2 kV=0.2080002494301389 Vminpu=0.8 Vmaxpu=1.2 model=1 kW=5.130050000000001 kvar=1.0390137833913942 Phases=2

New Load.load_p4ulv191 conn=wye bus1=p4ulv191.1.2 kV=0.2080002494301389 Vminpu=0.8 Vmaxpu=1.2 model=1 kW=8.58009 kvar=1.742261583519214 Phases=2

New Load.load_p4ulv591 conn=wye bus1=p4ulv591.1.2 kV=0.2080002494301389 Vminpu=0.8 Vmaxpu=1.2 model=1 kW=6.11006 kvar=1.2407005999934042 Phases=2

New Load.load_p4ulv602 conn=wye bus1=p4ulv602.1.2 kV=0.2080002494301389 Vminpu=0.8 Vmaxpu=1.2 model=1 kW=1.75002 kvar=0.3498246235335853 Phases=2

New Load.load_p4ulv609 conn=wye bus1=p4ulv609.1.2 kV=0.2080002494301389 Vminpu=0.8 Vmaxpu=1.2 model=1 kW=8.93009 kvar=1.8086542230437628 Phases=2

New Load.load_p4ulv610 conn=wye bus1=p4ulv610.1.2 kV=0.2080002494301389 Vminpu=0.8 Vmaxpu=1.2 model=1 kW=17.6902 kvar=3.5921483183476632 Phases=2

New Load.load_p4ulv613 conn=wye bus1=p4ulv613.1.2 kV=0.2080002494301389 Vminpu=0.8 Vmaxpu=1.2 model=1 kW=5.890060000000001 kvar=1.199106114871181 Phases=2

New Load.load_p4ulv616 conn=wye bus1=p4ulv616.1.2 kV=0.2080002494301389 Vminpu=0.8 Vmaxpu=1.2 model=1 kW=1.75002 kvar=0.5801567372313855 Phases=2

New Load.load_p4ulv617 conn=wye bus1=p4ulv617.1.2 kV=0.2080002494301389 Vminpu=0.8 Vmaxpu=1.2 model=1 kW=4.18004 kvar=0.8509780077632708 Phases=2

New Load.load_p4ulv618 conn=wye bus1=p4ulv618.1.2 kV=0.2080002494301389 Vminpu=0.8 Vmaxpu=1.2 model=1 kW=6.270060000000001 kvar=1.269905510217453 Phases=2

New Load.load_p4ulv1015 conn=wye bus1=p4ulv1015.1.2 kV=0.2080002494301389 Vminpu=0.8 Vmaxpu=1.2 model=1 kW=4.70005 kvar=1.5498295188532634 Phases=2

New Load.load_p4ulv1019 conn=wye bus1=p4ulv1019.1.2 kV=0.2080002494301389 Vminpu=0.8 Vmaxpu=1.2 model=1 kW=11.1301 kvar=2.260063198722531 Phases=2

New Load.load_p4ulv1020 conn=wye bus1=p4ulv1020.1.2 kV=0.2080002494301389 Vminpu=0.8 Vmaxpu=1.2 model=1 kW=10.1401 kvar=2.059035124694867 Phases=2

New Load.load_p4ulv1021 conn=wye bus1=p4ulv1021.1.2 kV=0.2080002494301389 Vminpu=0.8 Vmaxpu=1.2 model=1 kW=9.9401 kvar=2.018423392568066 Phases=2

New Load.load_p4ulv1026 conn=wye bus1=p4ulv1026.1.2 kV=0.2080002494301389 Vminpu=0.8 Vmaxpu=1.2 model=1 kW=4.880050000000001 kvar=0.9909364168269728 Phases=2

New Load.load_p4ulv1027 conn=wye bus1=p4ulv1027.1.2 kV=0.2080002494301389 Vminpu=0.8 Vmaxpu=1.2 model=1 kW=6.00006 kvar=1.2215000586741016 Phases=2

New Load.load_p4ulv1028 conn=wye bus1=p4ulv1028.1.2 kV=0.2080002494301389 Vminpu=0.8 Vmaxpu=1.2 model=1 kW=6.740070000000001 kvar=1.3686295867794334 Phases=2

New Load.load_p4ulv1438 conn=wye bus1=p4ulv1438.1.2 kV=0.2080002494301389 Vminpu=0.8 Vmaxpu=1.2 model=1 kW=5.37005 kvar=1.0904351605376348 Phases=2

New Load.load_p4ulv1458 conn=wye bus1=p4ulv1458.1.2 kV=0.2080002494301389 Vminpu=0.8 Vmaxpu=1.2 model=1 kW=10.3201 kvar=2.0901796563342514 Phases=2

New Load.load_p4ulv1459 conn=wye bus1=p4ulv1459.1.2 kV=0.2080002494301389 Vminpu=0.8 Vmaxpu=1.2 model=1 kW=1.9900200000000001 kvar=0.649841160201054 Phases=2

New Load.load_p4ulv1461 conn=wye bus1=p4ulv1461.1.2 kV=0.2080002494301389 Vminpu=0.8 Vmaxpu=1.2 model=1 kW=5.97006 kvar=1.2091450624601374 Phases=2

New Load.load_p4ulv1854 conn=wye bus1=p4ulv1854.1.2 kV=0.2080002494301389 Vminpu=0.8 Vmaxpu=1.2 model=1 kW=8.400080000000003 kvar=1.7100992678185132 Phases=2

New Load.load_p4ulv1880 conn=wye bus1=p4ulv1880.1.2.3 kV=0.48 Vminpu=0.8 Vmaxpu=1.2 model=1 kW=32.2703 kvar=6.55276389625751 Phases=3

New Load.load_p4ulv1885 conn=wye bus1=p4ulv1885.1.2.3 kV=0.48 Vminpu=0.8 Vmaxpu=1.2 model=1 kW=20.9002 kvar=6.869563535059275 Phases=3

New Load.load_p4ulv1886 conn=wye bus1=p4ulv1886.1.2 kV=0.2080002494301389 Vminpu=0.8 Vmaxpu=1.2 model=1 kW=11.9101 kvar=2.4184489540170544 Phases=2

New Load.load_p4ulv1889 conn=wye bus1=p4ulv1889.1.2 kV=0.2080002494301389 Vminpu=0.8 Vmaxpu=1.2 model=1 kW=6.79007 kvar=1.3787825198111334 Phases=2

New Load.load_p4ulv2276 conn=wye bus1=p4ulv2276.1.2 kV=0.2080002494301389 Vminpu=0.8 Vmaxpu=1.2 model=1 kW=11.5201 kvar=2.3392560763697925 Phases=2

New Load.load_p4ulv2277 conn=wye bus1=p4ulv2277.1.2 kV=0.2080002494301389 Vminpu=0.8 Vmaxpu=1.2 model=1 kW=15.5302 kvar=3.153541611378214 Phases=2

New Load.load_p4ulv2278 conn=wye bus1=p4ulv2278.1.2 kV=0.2080002494301389 Vminpu=0.8 Vmaxpu=1.2 model=1 kW=6.18006 kvar=1.2613673959495373 Phases=2

New Load.load_p4ulv2282 conn=wye bus1=p4ulv2282.1.2 kV=0.2080002494301389 Vminpu=0.8 Vmaxpu=1.2 model=1 kW=11.3701 kvar=3.741204337794138 Phases=2

New Load.load_p4ulv2283 conn=wye bus1=p4ulv2283.1.2 kV=0.2080002494301389 Vminpu=0.8 Vmaxpu=1.2 model=1 kW=6.03006 kvar=1.2307519796926671 Phases=2

New Load.load_p4ulv2694 conn=wye bus1=p4ulv2694.1.2 kV=0.2080002494301389 Vminpu=0.8 Vmaxpu=1.2 model=1 kW=5.29005 kvar=1.0686419089616372 Phases=2

New Load.load_p4ulv2695 conn=wye bus1=p4ulv2695.1.2 kV=0.2080002494301389 Vminpu=0.8 Vmaxpu=1.2 model=1 kW=4.95005 kvar=0.999958579116559 Phases=2

New Load.load_p4ulv2696 conn=wye bus1=p4ulv2696.1.2 kV=0.2080002494301389 Vminpu=0.8 Vmaxpu=1.2 model=1 kW=7.44007 kvar=1.5107706492232365 Phases=2

New Load.load_p4ulv3112 conn=wye bus1=p4ulv3112.1.2 kV=0.2080002494301389 Vminpu=0.8 Vmaxpu=1.2 model=1 kW=16.5502 kvar=5.43978767753122 Phases=2

New Load.load_p4ulv3118 conn=wye bus1=p4ulv3118.1.2 kV=0.2080002494301389 Vminpu=0.8 Vmaxpu=1.2 model=1 kW=4.26004 kvar=0.8694859858061031 Phases=2

New Load.load_p4ulv3119 conn=wye bus1=p4ulv3119.1.2 kV=0.2080002494301389 Vminpu=0.8 Vmaxpu=1.2 model=1 kW=19.4202 kvar=3.9434398012444905 Phases=2

New Load.load_p4ulv3120 conn=wye bus1=p4ulv3120.1.2.3 kV=0.48 Vminpu=0.8 Vmaxpu=1.2 model=1 kW=23.9002 kvar=4.85314260088483 Phases=3

New Load.load_p4ulv3125 conn=wye bus1=p4ulv3125.1.2 kV=0.2080002494301389 Vminpu=0.8 Vmaxpu=1.2 model=1 kW=5.890060000000001 kvar=1.199106114871181 Phases=2

New Load.load_p4ulv3511 conn=wye bus1=p4ulv3511.1.2 kV=0.2080002494301389 Vminpu=0.8 Vmaxpu=1.2 model=1 kW=4.82005 kvar=0.9787528971889325 Phases=2

New Load.load_p4ulv3525 conn=wye bus1=p4ulv3525.1.2 kV=0.2080002494301389 Vminpu=0.8 Vmaxpu=1.2 model=1 kW=19.3302 kvar=3.92516452178743 Phases=2

New Load.load_p4ulv3537 conn=wye bus1=p4ulv3537.1.2 kV=0.2080002494301389 Vminpu=0.8 Vmaxpu=1.2 model=1 kW=9.33009 kvar=1.8896681533868505 Phases=2

New Load.load_p4ulv3538 conn=wye bus1=p4ulv3538.1.2 kV=0.2080002494301389 Vminpu=0.8 Vmaxpu=1.2 model=1 kW=9.9501 kvar=2.0204539791744063 Phases=2

New Load.load_p4ulv3539 conn=wye bus1=p4ulv3539.1.2.3 kV=0.48 Vminpu=0.8 Vmaxpu=1.2 model=1 kW=43.9704 kvar=8.928570531541423 Phases=3

New Load.load_p4ulv3543 conn=wye bus1=p4ulv3543.1.2 kV=0.2080002494301389 Vminpu=0.8 Vmaxpu=1.2 model=1 kW=5.520060000000001 kvar=1.1208959902193418 Phases=2

New Load.load_p4ulv3953 conn=wye bus1=p4ulv3953.1.2 kV=0.2080002494301389 Vminpu=0.8 Vmaxpu=1.2 model=1 kW=2.38002 kvar=0.47953488966710467 Phases=2

New Load.load_p4ulv3975 conn=wye bus1=p4ulv3975.1.2 kV=0.2080002494301389 Vminpu=0.8 Vmaxpu=1.2 model=1 kW=6.45006 kvar=1.3097405446089656 Phases=2

New Load.load_p4ulv3988 conn=wye bus1=p4ulv3988.1.2 kV=0.2080002494301389 Vminpu=0.8 Vmaxpu=1.2 model=1 kW=1.84002 kvar=0.36976324162285545 Phases=2

New Load.load_p4ulv3989 conn=wye bus1=p4ulv3989.1.2 kV=0.2080002494301389 Vminpu=0.8 Vmaxpu=1.2 model=1 kW=5.44005 kvar=1.0989433780109366 Phases=2

New Load.load_p4ulv3990 conn=wye bus1=p4ulv3990.1.2 kV=0.2080002494301389 Vminpu=0.8 Vmaxpu=1.2 model=1 kW=0.390004 kvar=0.12997844466728997 Phases=2

New Load.load_p4ulv3993 conn=wye bus1=p4ulv3993.1.2 kV=0.2080002494301389 Vminpu=0.8 Vmaxpu=1.2 model=1 kW=8.50009 kvar=1.7304594343615136 Phases=2

New Load.load_p4ulv3996 conn=wye bus1=p4ulv3996.1.2 kV=0.2080002494301389 Vminpu=0.8 Vmaxpu=1.2 model=1 kW=6.66007 kvar=1.348896117650222 Phases=2

New Load.load_p4ulv3997 conn=wye bus1=p4ulv3997.1.2 kV=0.2080002494301389 Vminpu=0.8 Vmaxpu=1.2 model=1 kW=6.33006 kvar=1.2886818900828627 Phases=2

New Load.load_p4ulv3998 conn=wye bus1=p4ulv3998.1.2 kV=0.2080002494301389 Vminpu=0.8 Vmaxpu=1.2 model=1 kW=9.09009 kvar=1.8505724056680872 Phases=2

New Load.load_p4ulv3999 conn=wye bus1=p4ulv3999.1.2 kV=0.2080002494301389 Vminpu=0.8 Vmaxpu=1.2 model=1 kW=6.05006 kvar=1.2285170803553642 Phases=2

New Load.load_p4ulv4000 conn=wye bus1=p4ulv4000.1.2 kV=0.2080002494301389 Vminpu=0.8 Vmaxpu=1.2 model=1 kW=8.07008 kvar=1.6386996360092656 Phases=2

New Load.load_p4ulv4347 conn=wye bus1=p4ulv4347.1.2 kV=0.2080002494301389 Vminpu=0.8 Vmaxpu=1.2 model=1 kW=6.310060000000001 kvar=1.2813123321202051 Phases=2

New Load.load_p4ulv4348 conn=wye bus1=p4ulv4348.1.2 kV=0.2080002494301389 Vminpu=0.8 Vmaxpu=1.2 model=1 kW=6.38006 kvar=1.298860955447827 Phases=2

New Load.load_p4ulv4376 conn=wye bus1=p4ulv4376.1.2 kV=0.2080002494301389 Vminpu=0.8 Vmaxpu=1.2 model=1 kW=8.34008 kvar=1.6891566504394495 Phases=2

New Load.load_p4ulv4377 conn=wye bus1=p4ulv4377.1.2 kV=0.2080002494301389 Vminpu=0.8 Vmaxpu=1.2 model=1 kW=9.18009 kvar=1.8592879295081928 Phases=2

New Load.load_p4ulv4378 conn=wye bus1=p4ulv4378.1.2 kV=0.2080002494301389 Vminpu=0.8 Vmaxpu=1.2 model=1 kW=8.700090000000001 kvar=2.8595812966255756 Phases=2

New Load.load_p4ulv4379 conn=wye bus1=p4ulv4379.1.2 kV=0.2080002494301389 Vminpu=0.8 Vmaxpu=1.2 model=1 kW=5.090050000000001 kvar=1.0309123903570856 Phases=2

New Load.load_p4ulv4380 conn=wye bus1=p4ulv4380.1.2 kV=0.2080002494301389 Vminpu=0.8 Vmaxpu=1.2 model=1 kW=5.30005 kvar=1.0789911077515342 Phases=2

New Load.load_p4ulv4731 conn=wye bus1=p4ulv4731.1.2 kV=0.2080002494301389 Vminpu=0.8 Vmaxpu=1.2 model=1 kW=7.38007 kvar=1.498587129585196 Phases=2

New Load.load_p4ulv4768 conn=wye bus1=p4ulv4768.1.2 kV=0.2080002494301389 Vminpu=0.8 Vmaxpu=1.2 model=1 kW=5.40005 kvar=1.0993492384814623 Phases=2

New Load.load_p4ulv4769 conn=wye bus1=p4ulv4769.1.2 kV=0.2080002494301389 Vminpu=0.8 Vmaxpu=1.2 model=1 kW=3.40003 kvar=0.6904055379154336 Phases=2

New Load.load_p4ulv4771 conn=wye bus1=p4ulv4771.1.2 kV=0.2080002494301389 Vminpu=0.8 Vmaxpu=1.2 model=1 kW=6.04006 kvar=1.2296433109660727 Phases=2

New Load.load_p4ulv4772 conn=wye bus1=p4ulv4772.1.2 kV=0.2080002494301389 Vminpu=0.8 Vmaxpu=1.2 model=1 kW=5.05005 kvar=1.0307292191200343 Phases=2

New Load.load_p4ulv4773 conn=wye bus1=p4ulv4773.1.2 kV=0.2080002494301389 Vminpu=0.8 Vmaxpu=1.2 model=1 kW=8.58009 kvar=1.742261583519214 Phases=2

New Load.load_p4ulv5156 conn=wye bus1=p4ulv5156.1.2 kV=0.2080002494301389 Vminpu=0.8 Vmaxpu=1.2 model=1 kW=6.11006 kvar=1.2407005999934042 Phases=2

New Load.load_p4ulv5174 conn=wye bus1=p4ulv5174.1.2 kV=0.2080002494301389 Vminpu=0.8 Vmaxpu=1.2 model=1 kW=7.54008 kvar=1.531078545873243 Phases=2

New Load.load_p4ulv5184 conn=wye bus1=p4ulv5184.1.2 kV=0.2080002494301389 Vminpu=0.8 Vmaxpu=1.2 model=1 kW=8.05008 kvar=1.6304215509407107 Phases=2

New Load.load_p4ulv5192 conn=wye bus1=p4ulv5192.1.2 kV=0.2080002494301389 Vminpu=0.8 Vmaxpu=1.2 model=1 kW=4.99005 kvar=1.0106589077713133 Phases=2

New Load.load_p4ulv5198 conn=wye bus1=p4ulv5198.1.2 kV=0.2080002494301389 Vminpu=0.8 Vmaxpu=1.2 model=1 kW=8.950090000000001 kvar=1.8220710226461887 Phases=2

New Load.load_p4ulv5199 conn=wye bus1=p4ulv5199.1.2 kV=0.2080002494301389 Vminpu=0.8 Vmaxpu=1.2 model=1 kW=9.8801 kvar=2.0114036742475894 Phases=2

New Load.load_p4ulv5200 conn=wye bus1=p4ulv5200.1.2 kV=0.2080002494301389 Vminpu=0.8 Vmaxpu=1.2 model=1 kW=6.01006 kvar=1.9690057445159606 Phases=2

New Load.load_p4ulv5201 conn=wye bus1=p4ulv5201.1.2 kV=0.2080002494301389 Vminpu=0.8 Vmaxpu=1.2 model=1 kW=5.21005 kvar=1.0606687900945995 Phases=2

New Load.load_p4ulv5202 conn=wye bus1=p4ulv5202.1.2 kV=0.2080002494301389 Vminpu=0.8 Vmaxpu=1.2 model=1 kW=13.9101 kvar=2.8318363426636766 Phases=2

New Load.load_p4ulv5204 conn=wye bus1=p4ulv5204.1.2 kV=0.2080002494301389 Vminpu=0.8 Vmaxpu=1.2 model=1 kW=4.77005 kvar=0.9710930148829175 Phases=2

New Load.load_p4ulv5205 conn=wye bus1=p4ulv5205.1.2 kV=0.2080002494301389 Vminpu=0.8 Vmaxpu=1.2 model=1 kW=6.75007 kvar=1.3706601733857733 Phases=2

New Load.load_p4ulv5206 conn=wye bus1=p4ulv5206.1.2 kV=0.2080002494301389 Vminpu=0.8 Vmaxpu=1.2 model=1 kW=5.10005 kvar=1.0409343578723245 Phases=2

New Load.load_p4ulv5288 conn=wye bus1=p4ulv5288.1.2 kV=0.2080002494301389 Vminpu=0.8 Vmaxpu=1.2 model=1 kW=5.090050000000001 kvar=1.6694033082956403 Phases=2

New Load.load_p4ulv5606 conn=wye bus1=p4ulv5606.1.2 kV=0.2080002494301389 Vminpu=0.8 Vmaxpu=1.2 model=1 kW=6.91007 kvar=1.399529824114652 Phases=2

New Load.load_p4ulv5654 conn=wye bus1=p4ulv5654.1.2 kV=0.2080002494301389 Vminpu=0.8 Vmaxpu=1.2 model=1 kW=10.3801 kvar=2.1077692032470283 Phases=2

New Load.load_p4ulv5655 conn=wye bus1=p4ulv5655.1.2 kV=0.2080002494301389 Vminpu=0.8 Vmaxpu=1.2 model=1 kW=3.41003 kvar=0.6906498322195993 Phases=2

New Load.load_p4ulv5656 conn=wye bus1=p4ulv5656.1.2.3 kV=0.48 Vminpu=0.8 Vmaxpu=1.2 model=1 kW=24.540200000000002 kvar=4.983100143690592 Phases=3

New Load.load_p4ulv5657 conn=wye bus1=p4ulv5657.1.2 kV=0.2080002494301389 Vminpu=0.8 Vmaxpu=1.2 model=1 kW=7.22007 kvar=1.4698712893922927 Phases=2

New Load.load_p4ulv5658 conn=wye bus1=p4ulv5658.1.2 kV=0.2080002494301389 Vminpu=0.8 Vmaxpu=1.2 model=1 kW=6.37006 kvar=1.2901589928032249 Phases=2

New Load.load_p4ulv6009 conn=wye bus1=p4ulv6009.1.2 kV=0.2080002494301389 Vminpu=0.8 Vmaxpu=1.2 model=1 kW=5.41005 kvar=1.101385051554455 Phases=2

New Load.load_p4ulv6049 conn=wye bus1=p4ulv6049.1.2 kV=0.2080002494301389 Vminpu=0.8 Vmaxpu=1.2 model=1 kW=5.770060000000001 kvar=1.1686380972885935 Phases=2

New Load.load_p4ulv6050 conn=wye bus1=p4ulv6050.1.2 kV=0.2080002494301389 Vminpu=0.8 Vmaxpu=1.2 model=1 kW=6.66007 kvar=1.348896117650222 Phases=2

New Load.load_p4ulv6051 conn=wye bus1=p4ulv6051.1.2 kV=0.2080002494301389 Vminpu=0.8 Vmaxpu=1.2 model=1 kW=6.00006 kvar=1.2215000586741016 Phases=2

New Load.load_p4ulv6053 conn=wye bus1=p4ulv6053.1.2 kV=0.2080002494301389 Vminpu=0.8 Vmaxpu=1.2 model=1 kW=1.21001 kvar=0.3998538659049131 Phases=2

New Load.load_p4ulv6054 conn=wye bus1=p4ulv6054.1.2 kV=0.2080002494301389 Vminpu=0.8 Vmaxpu=1.2 model=1 kW=5.63006 kvar=1.1402832216685126 Phases=2

New Load.load_p4ulv6055 conn=wye bus1=p4ulv6055.1.2 kV=0.2080002494301389 Vminpu=0.8 Vmaxpu=1.2 model=1 kW=4.10004 kvar=0.8304008874096844 Phases=2

New Load.load_p4ulv6056 conn=wye bus1=p4ulv6056.1.2 kV=0.2080002494301389 Vminpu=0.8 Vmaxpu=1.2 model=1 kW=3.0700300000000005 kvar=0.620176126836135 Phases=2

New Load.load_p4ulv6057 conn=wye bus1=p4ulv6057.1.2 kV=0.2080002494301389 Vminpu=0.8 Vmaxpu=1.2 model=1 kW=9.590100000000001 kvar=1.952365095130799 Phases=2

New Load.load_p4ulv6423 conn=wye bus1=p4ulv6423.1.2 kV=0.2080002494301389 Vminpu=0.8 Vmaxpu=1.2 model=1 kW=1.93002 kvar=0.38988294196352385 Phases=2

New Load.load_p4ulv6440 conn=wye bus1=p4ulv6440.1.2 kV=0.2080002494301389 Vminpu=0.8 Vmaxpu=1.2 model=1 kW=5.53006 kvar=1.1200297390827405 Phases=2

New Load.load_p4ulv6456 conn=wye bus1=p4ulv6456.1.2 kV=0.2080002494301389 Vminpu=0.8 Vmaxpu=1.2 model=1 kW=18.0602 kvar=3.667280022782244 Phases=2

New Load.load_p4ulv6457 conn=wye bus1=p4ulv6457.1.2 kV=0.2080002494301389 Vminpu=0.8 Vmaxpu=1.2 model=1 kW=5.10005 kvar=1.0409343578723245 Phases=2

New Load.load_p4ulv6458 conn=wye bus1=p4ulv6458.1.2.3 kV=0.48 Vminpu=0.8 Vmaxpu=1.2 model=1 kW=22.490200000000005 kvar=4.566829889390884 Phases=3

New Load.load_p4ulv6461 conn=wye bus1=p4ulv6461.1.2 kV=0.2080002494301389 Vminpu=0.8 Vmaxpu=1.2 model=1 kW=13.1901 kvar=2.6783640396285797 Phases=2

New Load.load_p4ulv6462 conn=wye bus1=p4ulv6462.1.2 kV=0.2080002494301389 Vminpu=0.8 Vmaxpu=1.2 model=1 kW=5.67006 kvar=1.1513547893144422 Phases=2

New Load.load_p4ulv6464 conn=wye bus1=p4ulv6464.1.2.3 kV=0.48 Vminpu=0.8 Vmaxpu=1.2 model=1 kW=45.9005 kvar=9.320494052431116 Phases=3

New Load.load_p4ulv6465 conn=wye bus1=p4ulv6465.1.2 kV=0.2080002494301389 Vminpu=0.8 Vmaxpu=1.2 model=1 kW=4.880050000000001 kvar=0.9909364168269728 Phases=2

New Load.load_p4ulv6466 conn=wye bus1=p4ulv6466.1.2 kV=0.2080002494301389 Vminpu=0.8 Vmaxpu=1.2 model=1 kW=6.84007 kvar=1.3889354528428337 Phases=2

New Load.load_p4ulv6848 conn=wye bus1=p4ulv6848.1.2 kV=0.2080002494301389 Vminpu=0.8 Vmaxpu=1.2 model=1 kW=5.50006 kvar=1.119709405024463 Phases=2

New Load.load_p4ulv6889 conn=wye bus1=p4ulv6889.1.2 kV=0.2080002494301389 Vminpu=0.8 Vmaxpu=1.2 model=1 kW=5.68006 kvar=1.1504099629613984 Phases=2

New Load.load_p4ulv6892 conn=wye bus1=p4ulv6892.1.2 kV=0.2080002494301389 Vminpu=0.8 Vmaxpu=1.2 model=1 kW=7.6700800000000005 kvar=1.5614849134900406 Phases=2

New Load.load_p4ulv6893 conn=wye bus1=p4ulv6893.1.2 kV=0.2080002494301389 Vminpu=0.8 Vmaxpu=1.2 model=1 kW=7.070070000000001 kvar=1.4393340932974013 Phases=2

New Load.load_p4ulv7248 conn=wye bus1=p4ulv7248.1.2 kV=0.2080002494301389 Vminpu=0.8 Vmaxpu=1.2 model=1 kW=6.71007 kvar=1.3590228589431081 Phases=2

New Load.load_p4ulv7265 conn=wye bus1=p4ulv7265.1.2 kV=0.2080002494301389 Vminpu=0.8 Vmaxpu=1.2 model=1 kW=5.600060000000001 kvar=1.1400675357543906 Phases=2

New Load.load_p4ulv7275 conn=wye bus1=p4ulv7275.1.2.3 kV=0.48 Vminpu=0.8 Vmaxpu=1.2 model=1 kW=55.8406 kvar=11.338917444999181 Phases=3

New Load.load_p4ulv7295 conn=wye bus1=p4ulv7295.1.2 kV=0.2080002494301389 Vminpu=0.8 Vmaxpu=1.2 model=1 kW=8.07008 kvar=2.6496422232916736 Phases=2

New Load.load_p4ulv7296 conn=wye bus1=p4ulv7296.1.2 kV=0.2080002494301389 Vminpu=0.8 Vmaxpu=1.2 model=1 kW=5.090050000000001 kvar=1.0309123903570856 Phases=2

New Load.load_p4ulv7297 conn=wye bus1=p4ulv7297.1.2 kV=0.2080002494301389 Vminpu=0.8 Vmaxpu=1.2 model=1 kW=6.020060000000001 kvar=1.219271803753023 Phases=2

New Load.load_p4ulv7298 conn=wye bus1=p4ulv7298.1.2 kV=0.2080002494301389 Vminpu=0.8 Vmaxpu=1.2 model=1 kW=6.04006 kvar=1.2296433109660727 Phases=2

New Load.load_p4ulv7690 conn=wye bus1=p4ulv7690.1.2 kV=0.2080002494301389 Vminpu=0.8 Vmaxpu=1.2 model=1 kW=7.64008 kvar=1.5513844119366436 Phases=2

New Load.load_p4ulv7721 conn=wye bus1=p4ulv7721.1.2 kV=0.2080002494301389 Vminpu=0.8 Vmaxpu=1.2 model=1 kW=17.9802 kvar=3.651035329931524 Phases=2

New Load.load_p4ulv7726 conn=wye bus1=p4ulv7726.1.2 kV=0.2080002494301389 Vminpu=0.8 Vmaxpu=1.2 model=1 kW=4.35004 kvar=0.8810345938741143 Phases=2

New Load.load_p4ulv7727 conn=wye bus1=p4ulv7727.1.2 kV=0.2080002494301389 Vminpu=0.8 Vmaxpu=1.2 model=1 kW=9.8501 kvar=2.0001481131110053 Phases=2

New Load.load_p4ulv7728 conn=wye bus1=p4ulv7728.1.2 kV=0.2080002494301389 Vminpu=0.8 Vmaxpu=1.2 model=1 kW=4.79005 kvar=0.9701519425997696 Phases=2

New Load.load_p4ulv7732 conn=wye bus1=p4ulv7732.1.2 kV=0.2080002494301389 Vminpu=0.8 Vmaxpu=1.2 model=1 kW=5.890060000000001 kvar=1.199106114871181 Phases=2

New Load.load_p4ulv7733 conn=wye bus1=p4ulv7733.1.2 kV=0.2080002494301389 Vminpu=0.8 Vmaxpu=1.2 model=1 kW=5.06005 kvar=1.030131593999708 Phases=2

New Load.load_p4ulv8126 conn=wye bus1=p4ulv8126.1.2 kV=0.2080002494301389 Vminpu=0.8 Vmaxpu=1.2 model=1 kW=2.47002 kvar=0.5002650705650844 Phases=2

New Load.load_p4ulv8141 conn=wye bus1=p4ulv8141.1.2 kV=0.2080002494301389 Vminpu=0.8 Vmaxpu=1.2 model=1 kW=6.66007 kvar=1.348896117650222 Phases=2

New Load.load_p4ulv8160 conn=wye bus1=p4ulv8160.1.2 kV=0.2080002494301389 Vminpu=0.8 Vmaxpu=1.2 model=1 kW=8.64009 kvar=2.8398602503148442 Phases=2

New Load.load_p4ulv8161 conn=wye bus1=p4ulv8161.1.2 kV=0.2080002494301389 Vminpu=0.8 Vmaxpu=1.2 model=1 kW=4.37004 kvar=1.4394617812713364 Phases=2

New Load.load_p4ulv8163 conn=wye bus1=p4ulv8163.1.2 kV=0.2080002494301389 Vminpu=0.8 Vmaxpu=1.2 model=1 kW=5.51006 kvar=1.1188654036130017 Phases=2

New Load.load_p4ulv8164 conn=wye bus1=p4ulv8164.1.2 kV=0.2080002494301389 Vminpu=0.8 Vmaxpu=1.2 model=1 kW=8.58009 kvar=1.742261583519214 Phases=2

New Load.load_p4ulv8165 conn=wye bus1=p4ulv8165.1.2 kV=0.2080002494301389 Vminpu=0.8 Vmaxpu=1.2 model=1 kW=7.36007 kvar=1.498372672414192 Phases=2

New Load.load_p4ulv8600 conn=wye bus1=p4ulv8600.1.2 kV=0.2080002494301389 Vminpu=0.8 Vmaxpu=1.2 model=1 kW=5.65006 kvar=1.1502466011193542 Phases=2

New Load.load_p4ulv8601 conn=wye bus1=p4ulv8601.1.2.3 kV=0.48 Vminpu=0.8 Vmaxpu=1.2 model=1 kW=38.8604 kvar=7.89094077570166 Phases=3

New Load.load_p4ulv8610 conn=wye bus1=p4ulv8610.1.2 kV=0.2080002494301389 Vminpu=0.8 Vmaxpu=1.2 model=1 kW=8.11008 kvar=1.6510606887017225 Phases=2

New Load.load_p4ulv8611 conn=wye bus1=p4ulv8611.1.2 kV=0.2080002494301389 Vminpu=0.8 Vmaxpu=1.2 model=1 kW=6.79007 kvar=1.3787825198111334 Phases=2

New Load.load_p4ulv8612 conn=wye bus1=p4ulv8612.1.2 kV=0.2080002494301389 Vminpu=0.8 Vmaxpu=1.2 model=1 kW=10.0801 kvar=2.0521199357074447 Phases=2

New Load.load_p4ulv8977 conn=wye bus1=p4ulv8977.1.2 kV=0.2080002494301389 Vminpu=0.8 Vmaxpu=1.2 model=1 kW=4.920050000000001 kvar=0.9990587632523329 Phases=2

New Load.load_p4ulv8984 conn=wye bus1=p4ulv8984.1.2 kV=0.2080002494301389 Vminpu=0.8 Vmaxpu=1.2 model=1 kW=1.84002 kvar=0.6099930284456714 Phases=2

New Load.load_p4ulv8990 conn=wye bus1=p4ulv8990.1.2 kV=0.2080002494301389 Vminpu=0.8 Vmaxpu=1.2 model=1 kW=4.30004 kvar=0.8709078525812284 Phases=2

New Load.load_p4ulv8991 conn=wye bus1=p4ulv8991.1.2 kV=0.2080002494301389 Vminpu=0.8 Vmaxpu=1.2 model=1 kW=10.9801 kvar=2.229604399627431 Phases=2

New Load.load_p4ulv8992 conn=wye bus1=p4ulv8992.1.2 kV=0.2080002494301389 Vminpu=0.8 Vmaxpu=1.2 model=1 kW=10.1701 kvar=2.0704422533643796 Phases=2

New Load.load_p4ulv8993 conn=wye bus1=p4ulv8993.1.2 kV=0.2080002494301389 Vminpu=0.8 Vmaxpu=1.2 model=1 kW=9.35009 kvar=1.8986167522073973 Phases=2

New Load.load_p4ulv8994 conn=wye bus1=p4ulv8994.1.2 kV=0.2080002494301389 Vminpu=0.8 Vmaxpu=1.2 model=1 kW=4.87005 kvar=0.9889058302206326 Phases=2

New Load.load_p4ulv8995 conn=wye bus1=p4ulv8995.1.2 kV=0.2080002494301389 Vminpu=0.8 Vmaxpu=1.2 model=1 kW=18.7402 kvar=3.805359912013367 Phases=2

New Load.load_p4ulv9385 conn=wye bus1=p4ulv9385.1.2 kV=0.2080002494301389 Vminpu=0.8 Vmaxpu=1.2 model=1 kW=1.12001 kvar=0.2297613266028677 Phases=2

New Load.load_p4ulv9416 conn=wye bus1=p4ulv9416.1.2 kV=0.2080002494301389 Vminpu=0.8 Vmaxpu=1.2 model=1 kW=12.1001 kvar=2.457030099537515 Phases=2

New Load.load_p4ulv9428 conn=wye bus1=p4ulv9428.1.2 kV=0.2080002494301389 Vminpu=0.8 Vmaxpu=1.2 model=1 kW=5.96006 kvar=1.9589769879123353 Phases=2

New Load.load_p4ulv9429 conn=wye bus1=p4ulv9429.1.2 kV=0.2080002494301389 Vminpu=0.8 Vmaxpu=1.2 model=1 kW=18.2002 kvar=3.6861743375756664 Phases=2

New Load.load_p4ulv9437 conn=wye bus1=p4ulv9437.1.2.3 kV=0.48 Vminpu=0.8 Vmaxpu=1.2 model=1 kW=30.000300000000003 kvar=6.0918207366183195 Phases=3

New Load.load_p4ulv9440 conn=wye bus1=p4ulv9440.1.2 kV=0.2080002494301389 Vminpu=0.8 Vmaxpu=1.2 model=1 kW=9.9101 kvar=2.0123316327490457 Phases=2

New Load.load_p4ulv9446 conn=wye bus1=p4ulv9446.1.2 kV=0.2080002494301389 Vminpu=0.8 Vmaxpu=1.2 model=1 kW=5.66006 kvar=1.149324202708102 Phases=2

New Load.load_p4ulv9826 conn=wye bus1=p4ulv9826.1.2 kV=0.2080002494301389 Vminpu=0.8 Vmaxpu=1.2 model=1 kW=2.69003 kvar=0.5504422049321929 Phases=2

New Load.load_p4ulv9854 conn=wye bus1=p4ulv9854.1.2 kV=0.2080002494301389 Vminpu=0.8 Vmaxpu=1.2 model=1 kW=7.30007 kvar=1.4785184061991627 Phases=2

New Load.load_p4ulv9859 conn=wye bus1=p4ulv9859.1.2 kV=0.2080002494301389 Vminpu=0.8 Vmaxpu=1.2 model=1 kW=5.08005 kvar=1.0288870420985081 Phases=2

New Load.load_p4ulv9866 conn=wye bus1=p4ulv9866.1.2 kV=0.2080002494301389 Vminpu=0.8 Vmaxpu=1.2 model=1 kW=9.590100000000001 kvar=1.952365095130799 Phases=2

New Load.load_p4ulv9867 conn=wye bus1=p4ulv9867.1.2 kV=0.2080002494301389 Vminpu=0.8 Vmaxpu=1.2 model=1 kW=5.640060000000001 kvar=1.151151897424806 Phases=2

New Load.load_p4ulv9870 conn=wye bus1=p4ulv9870.1.2 kV=0.2080002494301389 Vminpu=0.8 Vmaxpu=1.2 model=1 kW=2.8200300000000005 kvar=0.5696736784206362 Phases=2

New Load.load_p4ulv9871 conn=wye bus1=p4ulv9871.1.2 kV=0.2080002494301389 Vminpu=0.8 Vmaxpu=1.2 model=1 kW=6.30006 kvar=1.2792817455138652 Phases=2

New Load.load_p4ulv9874 conn=wye bus1=p4ulv9874.1.2 kV=0.2080002494301389 Vminpu=0.8 Vmaxpu=1.2 model=1 kW=5.67006 kvar=1.1513547893144422 Phases=2

New Load.load_p4ulv10254 conn=wye bus1=p4ulv10254.1.2 kV=0.2080002494301389 Vminpu=0.8 Vmaxpu=1.2 model=1 kW=12.9501 kvar=2.629629961076419 Phases=2

New Load.load_p4ulv10262 conn=wye bus1=p4ulv10262.1.2 kV=0.2080002494301389 Vminpu=0.8 Vmaxpu=1.2 model=1 kW=8.13008 kvar=1.6508831556473056 Phases=2

New Load.load_p4ulv10275 conn=wye bus1=p4ulv10275.1.2 kV=0.2080002494301389 Vminpu=0.8 Vmaxpu=1.2 model=1 kW=12.9801 kvar=2.642505726875349 Phases=2

New Load.load_p4ulv10276 conn=wye bus1=p4ulv10276.1.2 kV=0.2080002494301389 Vminpu=0.8 Vmaxpu=1.2 model=1 kW=7.39007 kvar=1.5006177161915362 Phases=2

New Load.load_p4ulv10277 conn=wye bus1=p4ulv10277.1.2 kV=0.2080002494301389 Vminpu=0.8 Vmaxpu=1.2 model=1 kW=17.0902 kvar=3.4703131219672607 Phases=2

New Load.load_p4ulv10278 conn=wye bus1=p4ulv10278.1.2 kV=0.2080002494301389 Vminpu=0.8 Vmaxpu=1.2 model=1 kW=5.43005 kvar=1.0997742311487098 Phases=2

New Load.load_p4ulv10279 conn=wye bus1=p4ulv10279.1.2 kV=0.2080002494301389 Vminpu=0.8 Vmaxpu=1.2 model=1 kW=5.05005 kvar=1.0201595584827583 Phases=2

New Load.load_p4ulv10280 conn=wye bus1=p4ulv10280.1.2 kV=0.2080002494301389 Vminpu=0.8 Vmaxpu=1.2 model=1 kW=5.090050000000001 kvar=1.0309123903570856 Phases=2

New Load.load_p4ulv10283 conn=wye bus1=p4ulv10283.1.2 kV=0.2080002494301389 Vminpu=0.8 Vmaxpu=1.2 model=1 kW=15.6102 kvar=3.169786304228934 Phases=2

New Load.load_p4ulv10284 conn=wye bus1=p4ulv10284.1.2 kV=0.2080002494301389 Vminpu=0.8 Vmaxpu=1.2 model=1 kW=16.1502 kvar=3.279437980971297 Phases=2

New Load.load_p4ulv10699 conn=wye bus1=p4ulv10699.1.2 kV=0.2080002494301389 Vminpu=0.8 Vmaxpu=1.2 model=1 kW=8.64009 kvar=1.749919123545024 Phases=2

New Load.load_p4ulv10700 conn=wye bus1=p4ulv10700.1.2 kV=0.2080002494301389 Vminpu=0.8 Vmaxpu=1.2 model=1 kW=8.03008 kvar=1.630577289583905 Phases=2

New Load.load_p4ulv10702 conn=wye bus1=p4ulv10702.1.2 kV=0.2080002494301389 Vminpu=0.8 Vmaxpu=1.2 model=1 kW=5.47005 kvar=1.110741026601035 Phases=2

New Load.load_p4ulv10703 conn=wye bus1=p4ulv10703.1.2 kV=0.2080002494301389 Vminpu=0.8 Vmaxpu=1.2 model=1 kW=7.95008 kvar=1.6101680683549389 Phases=2

New Load.load_p4ulv11098 conn=wye bus1=p4ulv11098.1.2 kV=0.2080002494301389 Vminpu=0.8 Vmaxpu=1.2 model=1 kW=5.04005 kvar=1.0207856490641993 Phases=2

New Load.load_p4ulv11099 conn=wye bus1=p4ulv11099.1.2 kV=0.2080002494301389 Vminpu=0.8 Vmaxpu=1.2 model=1 kW=5.59006 kvar=1.1292468671581726 Phases=2

New Load.load_p4ulv11117 conn=wye bus1=p4ulv11117.1.2 kV=0.2080002494301389 Vminpu=0.8 Vmaxpu=1.2 model=1 kW=5.770060000000001 kvar=1.1686380972885935 Phases=2

New Load.load_p4ulv11123 conn=wye bus1=p4ulv11123.1.2 kV=0.2080002494301389 Vminpu=0.8 Vmaxpu=1.2 model=1 kW=6.80007 kvar=2.2302451556746856 Phases=2

New Load.load_p4ulv11124 conn=wye bus1=p4ulv11124.1.2 kV=0.2080002494301389 Vminpu=0.8 Vmaxpu=1.2 model=1 kW=7.23007 kvar=1.4681283304900956 Phases=2

New Load.load_p4ulv11125 conn=wye bus1=p4ulv11125.1.2 kV=0.2080002494301389 Vminpu=0.8 Vmaxpu=1.2 model=1 kW=2.71003 kvar=0.8897817511582455 Phases=2

New Load.load_p4ulv11126 conn=wye bus1=p4ulv11126.1.2 kV=0.2080002494301389 Vminpu=0.8 Vmaxpu=1.2 model=1 kW=4.840050000000001 kvar=0.9802786838926555 Phases=2

New Load.load_p4ulv11127 conn=wye bus1=p4ulv11127.1.2 kV=0.2080002494301389 Vminpu=0.8 Vmaxpu=1.2 model=1 kW=8.31008 kvar=1.6917769501615778 Phases=2

New Load.load_p4ulv11128 conn=wye bus1=p4ulv11128.1.2 kV=0.2080002494301389 Vminpu=0.8 Vmaxpu=1.2 model=1 kW=5.600060000000001 kvar=1.1400675357543906 Phases=2

New Load.load_p4ulv11129 conn=wye bus1=p4ulv11129.1.2.3 kV=0.48 Vminpu=0.8 Vmaxpu=1.2 model=1 kW=67.01070000000001 kvar=13.607102990147073 Phases=3

New Load.load_p4ulv11130 conn=wye bus1=p4ulv11130.1.2 kV=0.2080002494301389 Vminpu=0.8 Vmaxpu=1.2 model=1 kW=1.60002 kvar=0.529865022157608 Phases=2

New Load.load_p4ulv11133 conn=wye bus1=p4ulv11133.1.2 kV=0.2080002494301389 Vminpu=0.8 Vmaxpu=1.2 model=1 kW=6.03006 kvar=1.2212971520116003 Phases=2

New Load.load_p4ulv11518 conn=wye bus1=p4ulv11518.1.2 kV=0.2080002494301389 Vminpu=0.8 Vmaxpu=1.2 model=1 kW=1.7300200000000001 kvar=0.5698569511572062 Phases=2

New Load.load_p4ulv11519 conn=wye bus1=p4ulv11519.1.2 kV=0.2080002494301389 Vminpu=0.8 Vmaxpu=1.2 model=1 kW=5.75006 kvar=1.1706047318492825 Phases=2

New Load.load_p4ulv11547 conn=wye bus1=p4ulv11547.1.2 kV=0.2080002494301389 Vminpu=0.8 Vmaxpu=1.2 model=1 kW=7.39007 kvar=1.5006177161915362 Phases=2

New Load.load_p4ulv11548 conn=wye bus1=p4ulv11548.1.2 kV=0.2080002494301389 Vminpu=0.8 Vmaxpu=1.2 model=1 kW=4.96005 kvar=1.0097734632697801 Phases=2

New Load.load_p4ulv11549 conn=wye bus1=p4ulv11549.1.2 kV=0.2080002494301389 Vminpu=0.8 Vmaxpu=1.2 model=1 kW=12.0801 kvar=2.4529689263248358 Phases=2
