New Line.l(r:p4udt39lv-p4ulv40) Units=km Length=0.0114761 bus1=p4udt39lv.1.2 bus2=p4ulv40.1.2 switch=n enabled=y phases=2 Linecode=1P_UG_AL_1/0_Brenau_0_416_0_2_2_2_2

New Line.l(r:p4udt39lv-p4ulv485) Units=km Length=0.0328173 bus1=p4udt39lv.1.2 bus2=p4ulv485.1.2 switch=n enabled=y phases=2 Linecode=1P_UG_AL_1/0_Brenau_0_416_0_2_2_2_2

New Line.l(r:p4udt39lv-p4ulv897) Units=km Length=0.0446604 bus1=p4udt39lv.1.2 bus2=p4ulv897.1.2 switch=n enabled=y phases=2 Linecode=1P_UG_AL_1/0_Brenau_0_416_0_2_2_2_2

New Line.l(r:p4udt39lv-p4ulv16207) Units=km Length=0.024873 bus1=p4udt39lv.1.2 bus2=p4ulv16207.1.2 switch=n enabled=y phases=2 Linecode=1P_UG_AL_1/0_Brenau_0_416_0_2_2_2_2

New Line.l(r:p4udt48lv-p4ulv49) Units=km Length=0.001 bus1=p4udt48lv.1.2 bus2=p4ulv49.1.2 switch=n enabled=y phases=2 Linecode=1P_OH_AL_4_Periwinkle_0_416_0_2_2_2_2

New Line.l(r:p4udm1232-p4ulv472) Units=km Length=0.0352694 bus1=p4udm1232.1.2 bus2=p4ulv472.1.2 switch=n enabled=y phases=2 Linecode=1P_OH_AL_4/0_Zuzara_0_416_0_2_2_2_2

New Line.l(r:p4udm1232-p4ulv5041) Units=km Length=0.0110372 bus1=p4udm1232.1.2 bus2=p4ulv5041.1.2 switch=n enabled=y phases=2 Linecode=1P_OH_AL_2/0_Rucina_0_416_0_2_2_2_2

New Line.l(r:p4udm1232-p4ulv12715) Units=km Length=0.0778958 bus1=p4udm1232.1.2 bus2=p4ulv12715.1.2 switch=n enabled=y phases=2 Linecode=1P_OH_AL_4/0_Zuzara_0_416_0_2_2_2_2

New Line.l(r:p4udm1232-p4ulv38222) Units=km Length=0.061087 bus1=p4udm1232.1.2 bus2=p4ulv38222.1.2 switch=n enabled=y phases=2 Linecode=1P_OH_AL_4/0_Zuzara_0_416_0_2_2_2_2

New Line.l(r:p4udm1232-p4udt466lv) Units=km Length=0.0128527 bus1=p4udt466lv.1.2 bus2=p4udm1232.1.2 switch=n enabled=y phases=2 Linecode=1P_OH_AL_2/0_Rucina_0_416_0_2_0_2_2_2

New Line.l(r:p4udm1235-p4ulv13166) Units=km Length=0.020982800000000003 bus1=p4udm1235.1.2 bus2=p4ulv13166.1.2 switch=n enabled=y phases=2 Linecode=1P_OH_AL_2/0_Rucina_0_416_0_2_2_2_2

New Line.l(r:p4udm1235-p4ulv21792) Units=km Length=0.0314096 bus1=p4udm1235.1.2 bus2=p4ulv21792.1.2 switch=n enabled=y phases=2 Linecode=1P_OH_AL_4/0_Zuzara_0_416_0_2_2_2_2

New Line.l(r:p4udm1235-p4udt466lv) Units=km Length=0.0128527 bus1=p4udt466lv.1.2 bus2=p4udm1235.1.2 switch=n enabled=y phases=2 Linecode=1P_OH_AL_2/0_Rucina_0_416_0_2_2_2_2

New Line.l(r:p4udt478lv-p4ulv484) Units=km Length=0.0288931 bus1=p4udt478lv.1.2 bus2=p4ulv484.1.2 switch=n enabled=y phases=2 Linecode=1P_OH_AL_4/0_Zuzara_0_416_0_2_2_2_2

New Line.l(r:p4udt478lv-p4ulv14488) Units=km Length=0.0317799 bus1=p4udt478lv.1.2 bus2=p4ulv14488.1.2 switch=n enabled=y phases=2 Linecode=1P_OH_AL_4/0_Zuzara_0_416_0_2_2_2_2

New Line.l(r:p4udt478lv-p4ulv18391) Units=km Length=0.00313766 bus1=p4udt478lv.1.2 bus2=p4ulv18391.1.2 switch=n enabled=y phases=2 Linecode=1P_OH_AL_4_Periwinkle_0_416_0_2_2_2_2

New Line.l(r:p4udm1301-p4ulv4663) Units=km Length=0.018366600000000004 bus1=p4udm1301.1.2 bus2=p4ulv4663.1.2 switch=n enabled=y phases=2 Linecode=1P_OH_AL_2/0_Rucina_0_416_0_2_2_2_2

New Line.l(r:p4udm1300-p4ulv497) Units=km Length=0.0228236 bus1=p4udm1300.1.2 bus2=p4ulv497.1.2 switch=n enabled=y phases=2 Linecode=1P_OH_AL_2/0_Rucina_0_416_0_2_2_2_2

New Line.l(r:p4udm1300-p4udm1301) Units=km Length=0.05599730000000001 bus1=p4udm1301.1.2 bus2=p4udm1300.1.2 switch=n enabled=y phases=2 Linecode=1P_OH_AL_4/0_Zuzara_0_416_0_2_2_2_2

New Line.l(r:p4udm1301-p4udt490lv) Units=km Length=0.010611200000000001 bus1=p4udt490lv.1.2 bus2=p4udm1301.1.2 switch=n enabled=y phases=2 Linecode=1P_OH_AL_2/0_Rucina_0_416_0_2_2_2_2

New Line.l(r:p4udm1302-p4ulv22260) Units=km Length=0.00574145 bus1=p4udm1302.1.2 bus2=p4ulv22260.1.2 switch=n enabled=y phases=2 Linecode=1P_OH_AL_2/0_Rucina_0_416_0_2_2_2_2

New Line.l(r:p4udm1303-p4ulv37383) Units=km Length=0.00383897 bus1=p4udm1303.1.2 bus2=p4ulv37383.1.2 switch=n enabled=y phases=2 Linecode=1P_OH_AL_4_Periwinkle_0_416_0_2_2_2_2

New Line.l(r:p4udm1302-p4udm1303) Units=km Length=0.0121254 bus1=p4udm1302.1.2 bus2=p4udm1303.1.2 switch=n enabled=y phases=2 Linecode=1P_OH_AL_2/0_Rucina_0_416_0_2_2_2_2

New Line.l(r:p4udm1302-p4udt490lv) Units=km Length=0.0488463 bus1=p4udt490lv.1.2 bus2=p4udm1302.1.2 switch=n enabled=y phases=2 Linecode=1P_OH_AL_4/0_Zuzara_0_416_0_2_2_2_2

New Line.l(r:p4udt872lv-p4ulv890) Units=km Length=0.0137822 bus1=p4udt872lv.1.2 bus2=p4ulv890.1.2 switch=n enabled=y phases=2 Linecode=1P_OH_AL_2/0_Rucina_0_416_0_2_2_2_2

New Line.l(r:p4udt872lv-p4ulv22249) Units=km Length=0.0188917 bus1=p4udt872lv.1.2 bus2=p4ulv22249.1.2 switch=n enabled=y phases=2 Linecode=1P_OH_AL_2/0_Rucina_0_416_0_2_2_2_2

New Line.l(r:p4udm2354-p4ulv14909) Units=km Length=0.00998059 bus1=p4udm2354.1.2 bus2=p4ulv14909.1.2 switch=n enabled=y phases=2 Linecode=1P_OH_AL_2/0_Rucina_0_416_0_2_2_2_2

New Line.l(r:p4udm2354-p4udt872lv) Units=km Length=0.0370282 bus1=p4udt872lv.1.2 bus2=p4udm2354.1.2 switch=n enabled=y phases=2 Linecode=1P_OH_AL_4/0_Zuzara_0_416_0_2_2_2_2

New Line.l(r:p4udt873lv-p4ulv2147) Units=km Length=0.0575647 bus1=p4udt873lv.1.2 bus2=p4ulv2147.1.2 switch=n enabled=y phases=2 Linecode=1P_OH_AL_4/0_Zuzara_0_416_0_2_2_2_2

New Line.l(r:p4udm2356-p4ulv891) Units=km Length=0.03923200000000001 bus1=p4udm2356.1.2 bus2=p4ulv891.1.2 switch=n enabled=y phases=2 Linecode=1P_OH_AL_4/0_Zuzara_0_416_0_2_2_2_2

New Line.l(r:p4udm2356-p4ulv41581) Units=km Length=0.0257861 bus1=p4udm2356.1.2 bus2=p4ulv41581.1.2 switch=n enabled=y phases=2 Linecode=1P_OH_AL_2/0_Rucina_0_416_0_2_2_2_2

New Line.l(r:p4udm2356-p4udt873lv) Units=km Length=0.0146441 bus1=p4udt873lv.1.2 bus2=p4udm2356.1.2 switch=n enabled=y phases=2 Linecode=1P_OH_AL_2/0_Rucina_0_416_0_2_2_2_2

New Line.l(r:p4udm2358-p4ulv12300) Units=km Length=0.0591274 bus1=p4udm2358.1.2 bus2=p4ulv12300.1.2 switch=n enabled=y phases=2 Linecode=1P_OH_AL_4/0_Zuzara_0_416_0_2_2_2_2

New Line.l(r:p4udm2358-p4udt873lv) Units=km Length=0.019213400000000002 bus1=p4udt873lv.1.2 bus2=p4udm2358.1.2 switch=n enabled=y phases=2 Linecode=1P_OH_AL_2/0_Rucina_0_416_0_2_2_2_2

New Line.l(r:p4udm2360-p4ulv892) Units=km Length=0.0161775 bus1=p4udm2360.1.2 bus2=p4ulv892.1.2 switch=n enabled=y phases=2 Linecode=1P_OH_AL_2/0_Rucina_0_416_0_2_2_2_2

New Line.l(r:p4udm2360-p4udt874lv) Units=km Length=0.0166886 bus1=p4udt874lv.1.2 bus2=p4udm2360.1.2 switch=n enabled=y phases=2 Linecode=1P_OH_AL_2/0_Rucina_0_416_0_2_2_2_2

New Line.l(r:p4udm2361-p4ulv40716) Units=km Length=0.0278438 bus1=p4udm2361.1.2 bus2=p4ulv40716.1.2 switch=n enabled=y phases=2 Linecode=1P_OH_AL_4/0_Zuzara_0_416_0_2_2_2_2

New Line.l(r:p4udm2361-p4udt874lv) Units=km Length=0.0166897 bus1=p4udt874lv.1.2 bus2=p4udm2361.1.2 switch=n enabled=y phases=2 Linecode=1P_OH_AL_2/0_Rucina_0_416_0_2_2_2_2

New Line.l(r:p4udt875lv-p4ulv893) Units=km Length=0.113937 bus1=p4udt875lv.1.2 bus2=p4ulv893.1.2 switch=n enabled=y phases=2 Linecode=1P_OH_AL_4/0_Zuzara_0_416_0_2_2_2_2

New Line.l(r:p4udt875lv-p4ulv8027) Units=km Length=0.0833949 bus1=p4udt875lv.1.2 bus2=p4ulv8027.1.2 switch=n enabled=y phases=2 Linecode=1P_OH_AL_4/0_Zuzara_0_416_0_2_2_2_2

New Line.l(r:p4udt875lv-p4ulv10571) Units=km Length=0.0875862 bus1=p4udt875lv.1.2 bus2=p4ulv10571.1.2 switch=n enabled=y phases=2 Linecode=1P_OH_AL_4/0_Zuzara_0_416_0_2_2_2_2

New Line.l(r:p4udt875lv-p4ulv27232) Units=km Length=0.09179640000000001 bus1=p4udt875lv.1.2 bus2=p4ulv27232.1.2 switch=n enabled=y phases=2 Linecode=1P_OH_AL_4/0_Zuzara_0_416_0_2_2_2_2

New Line.l(r:p4udm2365-p4ulv16662) Units=km Length=0.00844775 bus1=p4udm2365.1.2 bus2=p4ulv16662.1.2 switch=n enabled=y phases=2 Linecode=1P_OH_AL_2/0_Rucina_0_416_0_2_2_2_2

New Line.l(r:p4udm2365-p4udt875lv) Units=km Length=0.0334046 bus1=p4udt875lv.1.2 bus2=p4udm2365.1.2 switch=n enabled=y phases=2 Linecode=1P_OH_AL_4/0_Zuzara_0_416_0_2_2_2_2

New Line.l(r:p4udt876lv-p4ulv5926) Units=km Length=0.08366570000000001 bus1=p4udt876lv.1.2 bus2=p4ulv5926.1.2 switch=n enabled=y phases=2 Linecode=1P_OH_AL_4/0_Zuzara_0_416_0_2_2_2_2

New Line.l(r:p4udt876lv-p4ulv11844) Units=km Length=0.0815987 bus1=p4udt876lv.1.2 bus2=p4ulv11844.1.2 switch=n enabled=y phases=2 Linecode=1P_OH_AL_4/0_Zuzara_0_416_0_2_2_2_2

New Line.l(r:p4udt876lv-p4ulv21808) Units=km Length=0.023921900000000003 bus1=p4udt876lv.1.2 bus2=p4ulv21808.1.2 switch=n enabled=y phases=2 Linecode=1P_OH_AL_2/0_Rucina_0_416_0_2_2_2_2

New Line.l(r:p4udm2367-p4ulv894) Units=km Length=0.0716569 bus1=p4udm2367.1.2 bus2=p4ulv894.1.2 switch=n enabled=y phases=2 Linecode=1P_OH_AL_4/0_Zuzara_0_416_0_2_2_2_2

New Line.l(r:p4udm2367-p4udt876lv) Units=km Length=0.0394054 bus1=p4udt876lv.1.2 bus2=p4udm2367.1.2 switch=n enabled=y phases=2 Linecode=1P_OH_AL_4/0_Zuzara_0_416_0_2_2_2_2

New Line.l(r:p4udm2369-p4ulv7147) Units=km Length=0.0998865 bus1=p4udm2369.1.2 bus2=p4ulv7147.1.2 switch=n enabled=y phases=2 Linecode=1P_OH_AL_4/0_Zuzara_0_416_0_2_2_2_2

New Line.l(r:p4udm2369-p4udt876lv) Units=km Length=0.0197048 bus1=p4udt876lv.1.2 bus2=p4udm2369.1.2 switch=n enabled=y phases=2 Linecode=1P_OH_AL_2/0_Rucina_0_416_0_2_2_2_2

New Line.l(r:p4udt878lv-p4ulv896) Units=km Length=0.046722400000000004 bus1=p4udt878lv.1.2 bus2=p4ulv896.1.2 switch=n enabled=y phases=2 Linecode=1P_OH_AL_4/0_Zuzara_0_416_0_2_2_2_2

New Line.l(r:p4udm2374-p4ulv21371) Units=km Length=0.04892740000000001 bus1=p4udm2374.1.2 bus2=p4ulv21371.1.2 switch=n enabled=y phases=2 Linecode=1P_OH_AL_4/0_Zuzara_0_416_0_2_2_2_2

New Line.l(r:p4udm2374-p4udt878lv) Units=km Length=0.0148951 bus1=p4udt878lv.1.2 bus2=p4udm2374.1.2 switch=n enabled=y phases=2 Linecode=1P_OH_AL_2/0_Rucina_0_416_0_2_2_2_2

New Line.l(r:p4udt1278lv-p4ulv1319) Units=km Length=0.0822993 bus1=p4udt1278lv.1.2 bus2=p4ulv1319.1.2 switch=n enabled=y phases=2 Linecode=1P_OH_AL_4/0_Zuzara_0_416_0_2_2_2_2

New Line.l(r:p4udm3430-p4ulv1320) Units=km Length=0.0109049 bus1=p4udm3430.1.2 bus2=p4ulv1320.1.2 switch=n enabled=y phases=2 Linecode=1P_OH_AL_2/0_Rucina_0_416_0_2_2_2_2

New Line.l(r:p4udm3430-p4ulv12278) Units=km Length=0.0205105 bus1=p4udm3430.1.2 bus2=p4ulv12278.1.2 switch=n enabled=y phases=2 Linecode=1P_OH_AL_2/0_Rucina_0_416_0_2_2_2_2

New Line.l(r:p4udm3430-p4udt1279lv) Units=km Length=0.011487 bus1=p4udt1279lv.1.2 bus2=p4udm3430.1.2 switch=n enabled=y phases=2 Linecode=1P_OH_AL_2/0_Rucina_0_416_0_2_2_2_2

New Line.l(r:p4udm3432-p4ulv33127) Units=km Length=0.0149866 bus1=p4udm3432.1.2 bus2=p4ulv33127.1.2 switch=n enabled=y phases=2 Linecode=1P_OH_AL_2/0_Rucina_0_416_0_2_2_2_2

New Line.l(r:p4udm3432-p4udt1279lv) Units=km Length=0.0435004 bus1=p4udt1279lv.1.2 bus2=p4udm3432.1.2 switch=n enabled=y phases=2 Linecode=1P_OH_AL_4/0_Zuzara_0_416_0_2_2_2_2

New Line.l(r:p4udt1280lv-p4ulv24243) Units=km Length=0.0159448 bus1=p4udt1280lv.1.2 bus2=p4ulv24243.1.2 switch=n enabled=y phases=2 Linecode=1P_OH_AL_2/0_Rucina_0_416_0_2_2_2_2

New Line.l(r:p4udm3433-p4ulv1322) Units=km Length=0.015170100000000002 bus1=p4udm3433.1.2 bus2=p4ulv1322.1.2 switch=n enabled=y phases=2 Linecode=1P_OH_AL_2/0_Rucina_0_416_0_2_2_2_2

New Line.l(r:p4udm3433-p4udt1280lv) Units=km Length=0.0192242 bus1=p4udt1280lv.1.2 bus2=p4udm3433.1.2 switch=n enabled=y phases=2 Linecode=1P_OH_AL_2/0_Rucina_0_416_0_2_2_2_2

New Line.l(r:p4udt1282lv-p4ulv1324) Units=km Length=0.0355653 bus1=p4udt1282lv.1.2 bus2=p4ulv1324.1.2 switch=n enabled=y phases=2 Linecode=1P_OH_AL_4/0_Zuzara_0_416_0_2_2_2_2

New Line.l(r:p4udt1691lv-p4ulv1761) Units=km Length=0.07916 bus1=p4udt1691lv.1.2 bus2=p4ulv1761.1.2 switch=n enabled=y phases=2 Linecode=1P_OH_AL_4/0_Zuzara_0_416_0_2_2_2_2

New Line.l(r:p4udt1693lv-p4ulv29356) Units=km Length=0.0102228 bus1=p4udt1693lv.1.2 bus2=p4ulv29356.1.2 switch=n enabled=y phases=2 Linecode=1P_OH_AL_2/0_Rucina_0_416_0_2_2_2_2

New Line.l(r:p4udm4560-p4ulv1763) Units=km Length=0.0400984 bus1=p4udm4560.1.2 bus2=p4ulv1763.1.2 switch=n enabled=y phases=2 Linecode=1P_OH_AL_4/0_Zuzara_0_416_0_2_2_2_2

New Line.l(r:p4udm4560-p4ulv9281) Units=km Length=0.024167300000000003 bus1=p4udm4560.1.2 bus2=p4ulv9281.1.2 switch=n enabled=y phases=2 Linecode=1P_OH_AL_2/0_Rucina_0_416_0_2_2_2_2

New Line.l(r:p4udm4560-p4udt1693lv) Units=km Length=0.0158465 bus1=p4udt1693lv.1.2 bus2=p4udm4560.1.2 switch=n enabled=y phases=2 Linecode=1P_OH_AL_2/0_Rucina_0_416_0_2_2_2_2

New Line.l(r:p4udm4563-p4ulv36109) Units=km Length=0.0175434 bus1=p4udm4563.1.2 bus2=p4ulv36109.1.2 switch=n enabled=y phases=2 Linecode=1P_OH_AL_2/0_Rucina_0_416_0_2_2_2_2

New Line.l(r:p4udm4563-p4udt1693lv) Units=km Length=0.0472758 bus1=p4udt1693lv.1.2 bus2=p4udm4563.1.2 switch=n enabled=y phases=2 Linecode=1P_OH_AL_4/0_Zuzara_0_416_0_2_2_2_2

New Line.l(r:p4udt1694lv-p4ulv1764) Units=km Length=0.0274755 bus1=p4udt1694lv.1.2 bus2=p4ulv1764.1.2 switch=n enabled=y phases=2 Linecode=1P_OH_AL_4/0_Zuzara_0_416_0_2_2_2_2

New Line.l(r:p4udm4565-p4ulv7148) Units=km Length=0.0275905 bus1=p4udm4565.1.2 bus2=p4ulv7148.1.2 switch=n enabled=y phases=2 Linecode=1P_OH_AL_4/0_Zuzara_0_416_0_2_2_2_2

New Line.l(r:p4udm4565-p4udt1694lv) Units=km Length=0.0187618 bus1=p4udt1694lv.1.2 bus2=p4udm4565.1.2 switch=n enabled=y phases=2 Linecode=1P_OH_AL_2/0_Rucina_0_416_0_2_2_2_2

New Line.l(r:p4udm4566-p4ulv30223) Units=km Length=0.0220507 bus1=p4udm4566.1.2 bus2=p4ulv30223.1.2 switch=n enabled=y phases=2 Linecode=1P_OH_AL_2/0_Rucina_0_416_0_2_2_2_2

New Line.l(r:p4udm4566-p4udt1694lv) Units=km Length=0.039448000000000004 bus1=p4udt1694lv.1.2 bus2=p4udm4566.1.2 switch=n enabled=y phases=2 Linecode=1P_OH_AL_4/0_Zuzara_0_416_0_2_2_2_2

New Line.l(r:p4udt1695lv-p4ulv1765) Units=km Length=0.0354636 bus1=p4udt1695lv.1.2 bus2=p4ulv1765.1.2 switch=n enabled=y phases=2 Linecode=1P_OH_AL_4/0_Zuzara_0_416_0_2_2_2_2

New Line.l(r:p4udt1695lv-p4ulv3852) Units=km Length=0.0541146 bus1=p4udt1695lv.1.2 bus2=p4ulv3852.1.2 switch=n enabled=y phases=2 Linecode=1P_OH_AL_4/0_Zuzara_0_416_0_2_2_2_2

New Line.l(r:p4udt1695lv-p4ulv11846) Units=km Length=0.0612382 bus1=p4udt1695lv.1.2 bus2=p4ulv11846.1.2 switch=n enabled=y phases=2 Linecode=1P_OH_AL_4/0_Zuzara_0_416_0_2_2_2_2

New Line.l(r:p4udt1695lv-p4ulv27230) Units=km Length=0.0301396 bus1=p4udt1695lv.1.2 bus2=p4ulv27230.1.2 switch=n enabled=y phases=2 Linecode=1P_OH_AL_4/0_Zuzara_0_416_0_2_2_2_2

New Line.l(r:p4udt1695lv-p4ulv30224) Units=km Length=0.0451789 bus1=p4udt1695lv.1.2 bus2=p4ulv30224.1.2 switch=n enabled=y phases=2 Linecode=1P_OH_AL_4/0_Zuzara_0_416_0_2_2_2_2

New Line.l(r:p4udt1696lv-p4ulv1766) Units=km Length=0.0859058 bus1=p4udt1696lv.1.2 bus2=p4ulv1766.1.2 switch=n enabled=y phases=2 Linecode=1P_OH_AL_4/0_Zuzara_0_416_0_2_2_2_2

New Line.l(r:p4udt1696lv-p4ulv25079) Units=km Length=0.0452495 bus1=p4udt1696lv.1.2 bus2=p4ulv25079.1.2 switch=n enabled=y phases=2 Linecode=1P_OH_AL_4/0_Zuzara_0_416_0_2_2_2_2

New Line.l(r:p4udm4574-p4ulv14912) Units=km Length=0.108852 bus1=p4udm4574.1.2 bus2=p4ulv14912.1.2 switch=n enabled=y phases=2 Linecode=1P_OH_AL_4/0_Zuzara_0_416_0_2_2_2_2

New Line.l(r:p4udm4573-p4ulv12731) Units=km Length=0.0650506 bus1=p4udm4573.1.2 bus2=p4ulv12731.1.2 switch=n enabled=y phases=2 Linecode=1P_OH_AL_4/0_Zuzara_0_416_0_2_2_2_2

New Line.l(r:p4udm4573-p4udm4574) Units=km Length=0.018559800000000005 bus1=p4udm4574.1.2 bus2=p4udm4573.1.2 switch=n enabled=y phases=2 Linecode=1P_OH_AL_2/0_Rucina_0_416_0_2_2_2_2

New Line.l(r:p4udm4574-p4udt1696lv) Units=km Length=0.0185499 bus1=p4udt1696lv.1.2 bus2=p4udm4574.1.2 switch=n enabled=y phases=2 Linecode=1P_OH_AL_2/0_Rucina_0_416_0_2_2_2_2

New Line.l(r:p4udm4576-p4ulv34874) Units=km Length=0.0463066 bus1=p4udm4576.1.2 bus2=p4ulv34874.1.2 switch=n enabled=y phases=2 Linecode=1P_OH_AL_4/0_Zuzara_0_416_0_2_2_2_2

New Line.l(r:p4udm4576-p4ulv40293) Units=km Length=0.0754004 bus1=p4udm4576.1.2 bus2=p4ulv40293.1.2 switch=n enabled=y phases=2 Linecode=1P_OH_AL_4/0_Zuzara_0_416_0_2_2_2_2

New Line.l(r:p4udm4576-p4udt1696lv) Units=km Length=0.0185585 bus1=p4udt1696lv.1.2 bus2=p4udm4576.1.2 switch=n enabled=y phases=2 Linecode=1P_OH_AL_2/0_Rucina_0_416_0_2_2_2_2

New Line.l(r:p4udt1707lv-p4ulv3009) Units=km Length=0.08619310000000001 bus1=p4udt1707lv.1.2 bus2=p4ulv3009.1.2 switch=n enabled=y phases=2 Linecode=1P_OH_AL_4/0_Zuzara_0_416_0_2_2_2_2

New Line.l(r:p4udt1707lv-p4ulv21391) Units=km Length=0.0581279 bus1=p4udt1707lv.1.2 bus2=p4ulv21391.1.2 switch=n enabled=y phases=2 Linecode=1P_OH_AL_4/0_Zuzara_0_416_0_2_2_2_2

New Line.l(r:p4udm4597-p4ulv1777) Units=km Length=0.03755540000000001 bus1=p4udm4597.1.2 bus2=p4ulv1777.1.2 switch=n enabled=y phases=2 Linecode=1P_OH_AL_4/0_Zuzara_0_416_0_2_2_2_2

New Line.l(r:p4udm4597-p4udt1707lv) Units=km Length=0.011119400000000002 bus1=p4udt1707lv.1.2 bus2=p4udm4597.1.2 switch=n enabled=y phases=2 Linecode=1P_OH_AL_2/0_Rucina_0_416_0_2_2_2_2

New Line.l(r:p4udm4600-p4ulv34052) Units=km Length=0.0198987 bus1=p4udm4600.1.2 bus2=p4ulv34052.1.2 switch=n enabled=y phases=2 Linecode=1P_OH_AL_2/0_Rucina_0_416_0_2_2_2_2

New Line.l(r:p4udm4600-p4udt1707lv) Units=km Length=0.04554 bus1=p4udt1707lv.1.2 bus2=p4udm4600.1.2 switch=n enabled=y phases=2 Linecode=1P_OH_AL_4/0_Zuzara_0_416_0_2_2_2_2

New Line.l(r:p4udt2030lv-p4ulv2124) Units=km Length=0.0106554 bus1=p4udt2030lv.1.2 bus2=p4ulv2124.1.2 switch=n enabled=y phases=2 Linecode=1P_OH_AL_2/0_Rucina_0_416_0_2_2_2_2

New Line.l(r:p4udt2038lv-p4ulv29792) Units=km Length=0.0120014 bus1=p4udt2038lv.1.2 bus2=p4ulv29792.1.2 switch=n enabled=y phases=2 Linecode=1P_OH_AL_2/0_Rucina_0_416_0_2_2_2_2

New Line.l(r:p4udm5459-p4ulv2132) Units=km Length=0.0189185 bus1=p4udm5459.1.2 bus2=p4ulv2132.1.2 switch=n enabled=y phases=2 Linecode=1P_OH_AL_2/0_Rucina_0_416_0_2_2_2_2

New Line.l(r:p4udm5459-p4udt2038lv) Units=km Length=0.0177087 bus1=p4udt2038lv.1.2 bus2=p4udm5459.1.2 switch=n enabled=y phases=2 Linecode=1P_OH_AL_2/0_Rucina_0_416_0_2_2_2_2

New Line.l(r:p4udt2050lv-p4ulv10980) Units=km Length=0.051993 bus1=p4udt2050lv.1.2 bus2=p4ulv10980.1.2 switch=n enabled=y phases=2 Linecode=1P_OH_AL_4/0_Zuzara_0_416_0_2_2_2_2

New Line.l(r:p4udm5486-p4ulv2146) Units=km Length=0.0361276 bus1=p4udm5486.1.2 bus2=p4ulv2146.1.2 switch=n enabled=y phases=2 Linecode=1P_OH_AL_4/0_Zuzara_0_416_0_2_2_2_2

New Line.l(r:p4udm5486-p4udt2050lv) Units=km Length=0.0367057 bus1=p4udt2050lv.1.2 bus2=p4udm5486.1.2 switch=n enabled=y phases=2 Linecode=1P_OH_AL_4/0_Zuzara_0_416_0_2_2_2_2

New Line.l(r:p4udt2051lv-p4ulv40289) Units=km Length=0.044966400000000004 bus1=p4udt2051lv.1.2 bus2=p4ulv40289.1.2 switch=n enabled=y phases=2 Linecode=1P_OH_AL_4/0_Zuzara_0_416_0_2_2_2_2

New Line.l(r:p4udm5488-p4ulv2148) Units=km Length=0.0264021 bus1=p4udm5488.1.2 bus2=p4ulv2148.1.2 switch=n enabled=y phases=2 Linecode=1P_OH_AL_2/0_Rucina_0_416_0_2_2_2_2

New Line.l(r:p4udm5488-p4udt2051lv) Units=km Length=0.018553200000000002 bus1=p4udt2051lv.1.2 bus2=p4udm5488.1.2 switch=n enabled=y phases=2 Linecode=1P_OH_AL_2/0_Rucina_0_416_0_2_2_2_2

New Line.l(r:p4udm5489-p4ulv30656) Units=km Length=0.0253846 bus1=p4udm5489.1.2 bus2=p4ulv30656.1.2 switch=n enabled=y phases=2 Linecode=1P_OH_AL_2/0_Rucina_0_416_0_2_2_2_2

New Line.l(r:p4udm5489-p4udt2051lv) Units=km Length=0.018553200000000002 bus1=p4udt2051lv.1.2 bus2=p4udm5489.1.2 switch=n enabled=y phases=2 Linecode=1P_OH_AL_2/0_Rucina_0_416_0_2_2_2_2

New Line.l(r:p4udt2399lv-p4ulv2524) Units=km Length=0.0486772 bus1=p4udt2399lv.1.2 bus2=p4ulv2524.1.2 switch=n enabled=y phases=2 Linecode=1P_OH_AL_4/0_Zuzara_0_416_0_2_2_2_2

New Line.l(r:p4udt2399lv-p4ulv16643) Units=km Length=0.00681625 bus1=p4udt2399lv.1.2 bus2=p4ulv16643.1.2 switch=n enabled=y phases=2 Linecode=1P_OH_AL_2/0_Rucina_0_416_0_2_2_2_2

New Line.l(r:p4udm6397-p4ulv10130) Units=km Length=0.00576439 bus1=p4udm6397.1.2 bus2=p4ulv10130.1.2 switch=n enabled=y phases=2 Linecode=1P_OH_AL_2/0_Rucina_0_416_0_2_2_2_2

New Line.l(r:p4udm6397-p4udt2399lv) Units=km Length=0.0360018 bus1=p4udt2399lv.1.2 bus2=p4udm6397.1.2 switch=n enabled=y phases=2 Linecode=1P_OH_AL_4/0_Zuzara_0_416_0_2_2_2_2

New Line.l(r:p4udt2419lv-p4ulv7150) Units=km Length=0.04278210000000001 bus1=p4udt2419lv.1.2 bus2=p4ulv7150.1.2 switch=n enabled=y phases=2 Linecode=1P_OH_AL_4/0_Zuzara_0_416_0_2_2_2_2

New Line.l(r:p4udt2419lv-p4ulv17524) Units=km Length=0.029321900000000005 bus1=p4udt2419lv.1.2 bus2=p4ulv17524.1.2 switch=n enabled=y phases=2 Linecode=1P_OH_AL_4/0_Zuzara_0_416_0_2_2_2_2

New Line.l(r:p4udt2419lv-p4ulv30657) Units=km Length=0.0598908 bus1=p4udt2419lv.1.2 bus2=p4ulv30657.1.2 switch=n enabled=y phases=2 Linecode=1P_OH_AL_4/0_Zuzara_0_416_0_2_2_2_2

New Line.l(r:p4udm6447-p4ulv2544) Units=km Length=0.0240605 bus1=p4udm6447.1.2 bus2=p4ulv2544.1.2 switch=n enabled=y phases=2 Linecode=1P_OH_AL_2/0_Rucina_0_416_0_2_2_2_2

New Line.l(r:p4udm6447-p4ulv30226) Units=km Length=0.0632126 bus1=p4udm6447.1.2 bus2=p4ulv30226.1.2 switch=n enabled=y phases=2 Linecode=1P_OH_AL_4/0_Zuzara_0_416_0_2_2_2_2

New Line.l(r:p4udm6447-p4udt2419lv) Units=km Length=0.0195598 bus1=p4udt2419lv.1.2 bus2=p4udm6447.1.2 switch=n enabled=y phases=2 Linecode=1P_OH_AL_2/0_Rucina_0_416_0_2_2_2_2

New Line.l(r:p4udm6450-p4ulv23459) Units=km Length=0.0643063 bus1=p4udm6450.1.2 bus2=p4ulv23459.1.2 switch=n enabled=y phases=2 Linecode=1P_OH_AL_4/0_Zuzara_0_416_0_2_2_2_2

New Line.l(r:p4udm6450-p4ulv43221) Units=km Length=0.0339194 bus1=p4udm6450.1.2 bus2=p4ulv43221.1.2 switch=n enabled=y phases=2 Linecode=1P_OH_AL_4/0_Zuzara_0_416_0_2_2_2_2

New Line.l(r:p4udm6450-p4udt2419lv) Units=km Length=0.0225322 bus1=p4udt2419lv.1.2 bus2=p4udm6450.1.2 switch=n enabled=y phases=2 Linecode=1P_OH_AL_2/0_Rucina_0_416_0_2_2_2_2

New Line.l(r:p4udt2421lv-p4ulv2547) Units=km Length=0.06074860000000001 bus1=p4udt2421lv.1.2 bus2=p4ulv2547.1.2 switch=n enabled=y phases=2 Linecode=1P_OH_AL_4/0_Zuzara_0_416_0_2_2_2_2

New Line.l(r:p4udt2423lv-p4ulv2549) Units=km Length=0.0867894 bus1=p4udt2423lv.1.2 bus2=p4ulv2549.1.2 switch=n enabled=y phases=2 Linecode=1P_OH_AL_4/0_Zuzara_0_416_0_2_2_2_2

New Line.l(r:p4udt2805lv-p4ulv2983) Units=km Length=0.016902200000000003 bus1=p4udt2805lv.1.2 bus2=p4ulv2983.1.2 switch=n enabled=y phases=2 Linecode=1P_OH_AL_2/0_Rucina_0_416_0_2_2_2_2

New Line.l(r:p4udm7443-p4ulv6326) Units=km Length=0.0199434 bus1=p4udm7443.1.2 bus2=p4ulv6326.1.2 switch=n enabled=y phases=2 Linecode=1P_OH_AL_2/0_Rucina_0_416_0_2_2_2_2

New Line.l(r:p4udm7443-p4ulv20941) Units=km Length=0.0166883 bus1=p4udm7443.1.2 bus2=p4ulv20941.1.2 switch=n enabled=y phases=2 Linecode=1P_OH_AL_2/0_Rucina_0_416_0_2_2_2_2

New Line.l(r:p4udm7443-p4udt2805lv) Units=km Length=0.0185143 bus1=p4udt2805lv.1.2 bus2=p4udm7443.1.2 switch=n enabled=y phases=2 Linecode=1P_OH_AL_2/0_Rucina_0_416_0_2_2_2_2

New Line.l(r:p4udm7444-p4ulv11407) Units=km Length=0.01938 bus1=p4udm7444.1.2 bus2=p4ulv11407.1.2 switch=n enabled=y phases=2 Linecode=1P_OH_AL_2/0_Rucina_0_416_0_2_2_2_2

New Line.l(r:p4udm7446-p4ulv23443) Units=km Length=0.012340300000000002 bus1=p4udm7446.1.2 bus2=p4ulv23443.1.2 switch=n enabled=y phases=2 Linecode=1P_OH_AL_2/0_Rucina_0_416_0_2_2_2_2

New Line.l(r:p4udm7444-p4udm7446) Units=km Length=0.0167047 bus1=p4udm7444.1.2 bus2=p4udm7446.1.2 switch=n enabled=y phases=2 Linecode=1P_OH_AL_2/0_Rucina_0_416_0_2_2_2_2

New Line.l(r:p4udm7444-p4udt2805lv) Units=km Length=0.0348758 bus1=p4udt2805lv.1.2 bus2=p4udm7444.1.2 switch=n enabled=y phases=2 Linecode=1P_OH_AL_4/0_Zuzara_0_416_0_2_2_2_2

New Line.l(r:p4udm7467-p4ulv2995) Units=km Length=0.0111806 bus1=p4udm7467.1.2 bus2=p4ulv2995.1.2 switch=n enabled=y phases=2 Linecode=1P_OH_AL_2/0_Rucina_0_416_0_2_2_2_2

New Line.l(r:p4udm7467-p4udt2816lv) Units=km Length=0.0142189 bus1=p4udt2816lv.1.2 bus2=p4udm7467.1.2 switch=n enabled=y phases=2 Linecode=1P_OH_AL_2/0_Rucina_0_416_0_2_2_2_2

New Line.l(r:p4udm7468-p4ulv12301) Units=km Length=0.015614 bus1=p4udm7468.1.2 bus2=p4ulv12301.1.2 switch=n enabled=y phases=2 Linecode=1P_OH_AL_2/0_Rucina_0_416_0_2_2_2_2

New Line.l(r:p4udm7468-p4udt2816lv) Units=km Length=0.0146816 bus1=p4udt2816lv.1.2 bus2=p4udm7468.1.2 switch=n enabled=y phases=2 Linecode=1P_OH_AL_2/0_Rucina_0_416_0_2_2_2_2

New Line.l(r:p4udt2818lv-p4ulv22629) Units=km Length=0.06731360000000002 bus1=p4udt2818lv.1.2 bus2=p4ulv22629.1.2 switch=n enabled=y phases=2 Linecode=1P_OH_AL_4/0_Zuzara_0_416_0_2_2_2_2

New Line.l(r:p4udt2818lv-p4ulv25943) Units=km Length=0.0129952 bus1=p4udt2818lv.1.2 bus2=p4ulv25943.1.2 switch=n enabled=y phases=2 Linecode=1P_OH_AL_2/0_Rucina_0_416_0_2_2_2_2

New Line.l(r:p4udm7470-p4ulv2997) Units=km Length=0.0466443 bus1=p4udm7470.1.2 bus2=p4ulv2997.1.2 switch=n enabled=y phases=2 Linecode=1P_OH_AL_4/0_Zuzara_0_416_0_2_2_2_2

New Line.l(r:p4udm7470-p4udt2818lv) Units=km Length=0.0155554 bus1=p4udt2818lv.1.2 bus2=p4udm7470.1.2 switch=n enabled=y phases=2 Linecode=1P_OH_AL_2/0_Rucina_0_416_0_2_2_2_2

New Line.l(r:p4udm7471-p4ulv19203) Units=km Length=0.011562200000000002 bus1=p4udm7471.1.2 bus2=p4ulv19203.1.2 switch=n enabled=y phases=2 Linecode=1P_OH_AL_2/0_Rucina_0_416_0_2_2_2_2

New Line.l(r:p4udm7471-p4ulv32319) Units=km Length=0.0449241 bus1=p4udm7471.1.2 bus2=p4ulv32319.1.2 switch=n enabled=y phases=2 Linecode=1P_OH_AL_4/0_Zuzara_0_416_0_2_2_2_2

New Line.l(r:p4udm7471-p4udt2818lv) Units=km Length=0.0155604 bus1=p4udt2818lv.1.2 bus2=p4udm7471.1.2 switch=n enabled=y phases=2 Linecode=1P_OH_AL_2/0_Rucina_0_416_0_2_2_2_2

New Line.l(r:p4udt2831lv-p4ulv3013) Units=km Length=0.028703400000000004 bus1=p4udt2831lv.1.2 bus2=p4ulv3013.1.2 switch=n enabled=y phases=2 Linecode=1P_OH_AL_4/0_Zuzara_0_416_0_2_2_2_2

New Line.l(r:p4udm7505-p4ulv40736) Units=km Length=0.0249234 bus1=p4udm7505.1.2 bus2=p4ulv40736.1.2 switch=n enabled=y phases=2 Linecode=1P_OH_AL_2/0_Rucina_0_416_0_2_2_2_2

New Line.l(r:p4udm7505-p4udt2831lv) Units=km Length=0.0185499 bus1=p4udt2831lv.1.2 bus2=p4udm7505.1.2 switch=n enabled=y phases=2 Linecode=1P_OH_AL_2/0_Rucina_0_416_0_2_2_2_2

New Line.l(r:p4udt2832lv-p4ulv3014) Units=km Length=0.00218893 bus1=p4udt2832lv.1.2 bus2=p4ulv3014.1.2 switch=n enabled=y phases=2 Linecode=1P_OH_AL_4_Periwinkle_0_416_0_2_2_2_2

New Line.l(r:p4udm7507-p4ulv34891) Units=km Length=0.012298 bus1=p4udm7507.1.2 bus2=p4ulv34891.1.2 switch=n enabled=y phases=2 Linecode=1P_OH_AL_2/0_Rucina_0_416_0_2_2_2_2

New Line.l(r:p4udm7507-p4udt2832lv) Units=km Length=0.0111002 bus1=p4udt2832lv.1.2 bus2=p4udm7507.1.2 switch=n enabled=y phases=2 Linecode=1P_OH_AL_2/0_Rucina_0_416_0_2_2_2_2

New Line.l(r:p4udt3183lv-p4ulv3396) Units=km Length=0.005872780000000001 bus1=p4udt3183lv.1.2 bus2=p4ulv3396.1.2 switch=n enabled=y phases=2 Linecode=1P_OH_AL_2/0_Rucina_0_416_0_2_2_2_2

New Line.l(r:p4udt3183lv-p4ulv9282) Units=km Length=0.11258 bus1=p4udt3183lv.1.2 bus2=p4ulv9282.1.2 switch=n enabled=y phases=2 Linecode=1P_OH_AL_4/0_Zuzara_0_416_0_2_2_2_2

New Line.l(r:p4udt3185lv-p4ulv3398) Units=km Length=0.001 bus1=p4udt3185lv.1.2 bus2=p4ulv3398.1.2 switch=n enabled=y phases=2 Linecode=1P_OH_AL_4_Periwinkle_0_416_0_2_2_2_2

New Line.l(r:p4udt3573lv-p4ulv3853) Units=km Length=0.06187560000000001 bus1=p4udt3573lv.1.2 bus2=p4ulv3853.1.2 switch=n enabled=y phases=2 Linecode=1P_OH_AL_4/0_Zuzara_0_416_0_2_2_2_2

New Line.l(r:p4udt3573lv-p4ulv25077) Units=km Length=0.0428248 bus1=p4udt3573lv.1.2 bus2=p4ulv25077.1.2 switch=n enabled=y phases=2 Linecode=1P_OH_AL_4/0_Zuzara_0_416_0_2_2_2_2

New Line.l(r:p4udm9401-p4ulv4646) Units=km Length=0.0258213 bus1=p4udm9401.1.2 bus2=p4ulv4646.1.2 switch=n enabled=y phases=2 Linecode=1P_OH_AL_2/0_Rucina_0_416_0_2_2_2_2

New Line.l(r:p4udm9401-p4udt3573lv) Units=km Length=0.0112022 bus1=p4udt3573lv.1.2 bus2=p4udm9401.1.2 switch=n enabled=y phases=2 Linecode=1P_OH_AL_2/0_Rucina_0_416_0_2_2_2_2

New Line.l(r:p4udm9403-p4ulv3854) Units=km Length=0.024703 bus1=p4udm9403.1.2 bus2=p4ulv3854.1.2 switch=n enabled=y phases=2 Linecode=1P_OH_AL_2/0_Rucina_0_416_0_2_2_2_2

New Line.l(r:p4udm9403-p4udt3574lv) Units=km Length=0.0186146 bus1=p4udt3574lv.1.2 bus2=p4udm9403.1.2 switch=n enabled=y phases=2 Linecode=1P_OH_AL_2/0_Rucina_0_416_0_2_2_2_2

New Line.l(r:p4udm9404-p4ulv15363) Units=km Length=0.0689808 bus1=p4udm9404.1.2 bus2=p4ulv15363.1.2 switch=n enabled=y phases=2 Linecode=1P_OH_AL_4/0_Zuzara_0_416_0_2_2_2_2

New Line.l(r:p4udm9404-p4udt3574lv) Units=km Length=0.0186146 bus1=p4udt3574lv.1.2 bus2=p4udm9404.1.2 switch=n enabled=y phases=2 Linecode=1P_OH_AL_2/0_Rucina_0_416_0_2_2_2_2

New Line.l(r:p4udt3576lv-p4ulv3856) Units=km Length=0.001 bus1=p4udt3576lv.1.2 bus2=p4ulv3856.1.2 switch=n enabled=y phases=2 Linecode=1P_OH_AL_4_Periwinkle_0_416_0_2_2_2_2

New Line.l(r:p4udt3934lv-p4ulv17980) Units=km Length=0.0595499 bus1=p4udt3934lv.1.2 bus2=p4ulv17980.1.2 switch=n enabled=y phases=2 Linecode=1P_OH_AL_4/0_Zuzara_0_416_0_2_2_2_2

New Line.l(r:p4udm10304-p4ulv4263) Units=km Length=0.0683015 bus1=p4udm10304.1.2 bus2=p4ulv4263.1.2 switch=n enabled=y phases=2 Linecode=1P_OH_AL_4/0_Zuzara_0_416_0_2_2_2_2

New Line.l(r:p4udm10304-p4udt3934lv) Units=km Length=0.019213400000000002 bus1=p4udt3934lv.1.2 bus2=p4udm10304.1.2 switch=n enabled=y phases=2 Linecode=1P_OH_AL_2/0_Rucina_0_416_0_2_2_2_2

New Line.l(r:p4udt3935lv-p4ulv4264) Units=km Length=0.0597302 bus1=p4udt3935lv.1.2 bus2=p4ulv4264.1.2 switch=n enabled=y phases=2 Linecode=1P_OH_AL_4/0_Zuzara_0_416_0_2_2_2_2

New Line.l(r:p4udm10307-p4ulv8474) Units=km Length=0.0727402 bus1=p4udm10307.1.2 bus2=p4ulv8474.1.2 switch=n enabled=y phases=2 Linecode=1P_OH_AL_4/0_Zuzara_0_416_0_2_2_2_2

New Line.l(r:p4udm10307-p4udt3935lv) Units=km Length=0.0168553 bus1=p4udt3935lv.1.2 bus2=p4udm10307.1.2 switch=n enabled=y phases=2 Linecode=1P_OH_AL_2/0_Rucina_0_416_0_2_2_2_2

New Line.l(r:p4udt3936lv-p4ulv4265) Units=km Length=0.0404635 bus1=p4udt3936lv.1.2 bus2=p4ulv4265.1.2 switch=n enabled=y phases=2 Linecode=1P_UG_AL_1/0_Brenau_0_416_0_2_2_2_2

New Line.l(r:p4udm10309-p4ulv43220) Units=km Length=0.016226 bus1=p4udm10309.1.2 bus2=p4ulv43220.1.2 switch=n enabled=y phases=2 Linecode=1P_UG_AL_1/0_Brenau_0_416_0_2_2_2_2

New Line.l(r:p4udm10309-p4udt3936lv) Units=km Length=0.00966409 bus1=p4udt3936lv.1.2 bus2=p4udm10309.1.2 switch=n enabled=y phases=2 Linecode=1P_UG_AL_1/0_Brenau_0_416_0_2_2_2_2
