New Line.l(r:p1udm1532-p1ulv7431) Units=km Length=0.0158608 bus1=p1udm1532.1.2 bus2=p1ulv7431.1.2 switch=n enabled=y phases=2 Linecode=1P_UG_AL_1/0_Brenau_0_416_0_2_2_2_2

New Line.l(r:p1udm1531-p1ulv429) Units=km Length=0.0160635 bus1=p1udm1531.1.2 bus2=p1ulv429.1.2 switch=n enabled=y phases=2 Linecode=1P_UG_AL_1/0_Brenau_0_416_0_2_2_2_2

New Line.l(r:p1udm1531-p1udm1532) Units=km Length=0.00644715 bus1=p1udm1532.1.2 bus2=p1udm1531.1.2 switch=n enabled=y phases=2 Linecode=1P_UG_AL_1/0_Brenau_0_416_0_2_2_2_2

New Line.l(r:p1udm1532-p1udt425lv) Units=km Length=0.00643718 bus1=p1udt425lv.1.2 bus2=p1udm1532.1.2 switch=n enabled=y phases=2 Linecode=1P_UG_AL_4/0_Sweetbriar_0_416_0_2_2_2_2

New Line.l(r:p1udm1534-p1ulv63352) Units=km Length=0.0134592 bus1=p1udm1534.1.2 bus2=p1ulv63352.1.2 switch=n enabled=y phases=2 Linecode=1P_UG_AL_1/0_Brenau_0_416_0_2_2_2_2

New Line.l(r:p1udm1533-p1ulv22518) Units=km Length=0.0163543 bus1=p1udm1533.1.2 bus2=p1ulv22518.1.2 switch=n enabled=y phases=2 Linecode=1P_UG_AL_1/0_Brenau_0_416_0_2_2_2_2

New Line.l(r:p1udm1533-p1udm1534) Units=km Length=0.00890982 bus1=p1udm1534.1.2 bus2=p1udm1533.1.2 switch=n enabled=y phases=2 Linecode=1P_UG_AL_1/0_Brenau_0_416_0_2_2_2_2

New Line.l(r:p1udm1534-p1udt425lv) Units=km Length=0.017829500000000005 bus1=p1udt425lv.1.2 bus2=p1udm1534.1.2 switch=n enabled=y phases=2 Linecode=1P_UG_AL_4/0_Sweetbriar_0_416_0_2_2_2_2

New Line.l(r:p1udm1535-p1ulv430) Units=km Length=0.0172448 bus1=p1udm1535.1.2 bus2=p1ulv430.1.2 switch=n enabled=y phases=2 Linecode=1P_UG_AL_1/0_Brenau_0_416_0_2_2_2_2

New Line.l(r:p1udm1535-p1ulv34015) Units=km Length=0.0156875 bus1=p1udm1535.1.2 bus2=p1ulv34015.1.2 switch=n enabled=y phases=2 Linecode=1P_UG_AL_1/0_Brenau_0_416_0_2_2_2_2

New Line.l(r:p1udm1535-p1ulv44759) Units=km Length=0.0178034 bus1=p1udm1535.1.2 bus2=p1ulv44759.1.2 switch=n enabled=y phases=2 Linecode=1P_UG_AL_1/0_Brenau_0_416_0_2_2_2_2

New Line.l(r:p1udm1535-p1udt426lv) Units=km Length=0.00983525 bus1=p1udt426lv.1.2 bus2=p1udm1535.1.2 switch=n enabled=y phases=2 Linecode=1P_UG_AL_4/0_Sweetbriar_0_416_0_2_2_2_2

New Line.l(r:p1udm1536-p1ulv1053) Units=km Length=0.0168382 bus1=p1udm1536.1.2 bus2=p1ulv1053.1.2 switch=n enabled=y phases=2 Linecode=1P_UG_AL_1/0_Brenau_0_416_0_2_2_2_2

New Line.l(r:p1udm1536-p1ulv61444) Units=km Length=0.0127183 bus1=p1udm1536.1.2 bus2=p1ulv61444.1.2 switch=n enabled=y phases=2 Linecode=1P_UG_AL_1/0_Brenau_0_416_0_2_2_2_2

New Line.l(r:p1udm1536-p1udt426lv) Units=km Length=0.0196783 bus1=p1udt426lv.1.2 bus2=p1udm1536.1.2 switch=n enabled=y phases=2 Linecode=1P_UG_AL_4/0_Sweetbriar_0_416_0_2_2_2_2

New Line.l(r:p1udm1730-p1ulv482) Units=km Length=0.0156007 bus1=p1udm1730.1.2 bus2=p1ulv482.1.2 switch=n enabled=y phases=2 Linecode=1P_UG_AL_1/0_Brenau_0_416_0_2_2_2_2

New Line.l(r:p1udm1730-p1udt476lv) Units=km Length=0.00944298 bus1=p1udt476lv.1.2 bus2=p1udm1730.1.2 switch=n enabled=y phases=2 Linecode=1P_UG_AL_1/0_Brenau_0_416_0_2_2_2_2

New Line.l(r:p1udm1731-p1ulv21959) Units=km Length=0.0177532 bus1=p1udm1731.1.2 bus2=p1ulv21959.1.2 switch=n enabled=y phases=2 Linecode=1P_UG_AL_1/0_Brenau_0_416_0_2_2_2_2

New Line.l(r:p1udm1731-p1udt476lv) Units=km Length=0.009447880000000002 bus1=p1udt476lv.1.2 bus2=p1udm1731.1.2 switch=n enabled=y phases=2 Linecode=1P_UG_AL_1/0_Brenau_0_416_0_2_2_2_2

New Line.l(r:p1udt1009lv-p1ulv1029) Units=km Length=0.0160382 bus1=p1udt1009lv.1.2 bus2=p1ulv1029.1.2 switch=n enabled=y phases=2 Linecode=1P_UG_AL_1/0_Brenau_0_416_0_2_2_2_2

New Line.l(r:p1udm3703-p1ulv25722) Units=km Length=0.0163664 bus1=p1udm3703.1.2 bus2=p1ulv25722.1.2 switch=n enabled=y phases=2 Linecode=1P_UG_AL_1/0_Brenau_0_416_0_2_2_2_2

New Line.l(r:p1udm3703-p1ulv63979) Units=km Length=0.0168477 bus1=p1udm3703.1.2 bus2=p1ulv63979.1.2 switch=n enabled=y phases=2 Linecode=1P_UG_AL_1/0_Brenau_0_416_0_2_2_2_2

New Line.l(r:p1udm3703-p1udt1009lv) Units=km Length=0.0166826 bus1=p1udt1009lv.1.2 bus2=p1udm3703.1.2 switch=n enabled=y phases=2 Linecode=1P_UG_AL_4/0_Sweetbriar_0_416_0_2_2_2_2

New Line.l(r:p1udm3704-p1ulv52871) Units=km Length=0.0183473 bus1=p1udm3704.1.2 bus2=p1ulv52871.1.2 switch=n enabled=y phases=2 Linecode=1P_UG_AL_1/0_Brenau_0_416_0_2_2_2_2

New Line.l(r:p1udm3704-p1udt1009lv) Units=km Length=0.0481713 bus1=p1udt1009lv.1.2 bus2=p1udm3704.1.2 switch=n enabled=y phases=2 Linecode=1P_UG_AL_1/0_Brenau_0_416_0_2_2_2_2

New Line.l(r:p1udt1030lv-p1ulv3001) Units=km Length=0.0101473 bus1=p1udt1030lv.1.2 bus2=p1ulv3001.1.2 switch=n enabled=y phases=2 Linecode=1P_OH_AL_2/0_Rucina_0_416_0_2_2_2_2

New Line.l(r:p1udt1030lv-p1ulv5491) Units=km Length=0.00749987 bus1=p1udt1030lv.1.2 bus2=p1ulv5491.1.2 switch=n enabled=y phases=2 Linecode=1P_OH_AL_2/0_Rucina_0_416_0_2_2_2_2

New Line.l(r:p1udm3765-p1ulv1050) Units=km Length=0.0127678 bus1=p1udm3765.1.2 bus2=p1ulv1050.1.2 switch=n enabled=y phases=2 Linecode=1P_OH_AL_2/0_Rucina_0_416_0_2_2_2_2

New Line.l(r:p1udm3765-p1ulv11744) Units=km Length=0.00719253 bus1=p1udm3765.1.2 bus2=p1ulv11744.1.2 switch=n enabled=y phases=2 Linecode=1P_OH_AL_2/0_Rucina_0_416_0_2_2_2_2

New Line.l(r:p1udm3770-p1ulv44755) Units=km Length=0.00835418 bus1=p1udm3770.1.2 bus2=p1ulv44755.1.2 switch=n enabled=y phases=2 Linecode=1P_OH_AL_2/0_Rucina_0_416_0_2_2_2_2

New Line.l(r:p1udm3765-p1udm3770) Units=km Length=0.0156234 bus1=p1udm3765.1.2 bus2=p1udm3770.1.2 switch=n enabled=y phases=2 Linecode=1P_OH_AL_2/0_Rucina_0_416_0_2_2_2_2

New Line.l(r:p1udm3765-p1udt1030lv) Units=km Length=0.019453000000000005 bus1=p1udt1030lv.1.2 bus2=p1udm3765.1.2 switch=n enabled=y phases=2 Linecode=1P_OH_AL_2/0_Rucina_0_416_0_2_2_2_2

New Line.l(r:p1udm3771-p1ulv60792) Units=km Length=0.00731249 bus1=p1udm3771.1.2 bus2=p1ulv60792.1.2 switch=n enabled=y phases=2 Linecode=1P_OH_AL_2/0_Rucina_0_416_0_2_2_2_2

New Line.l(r:p1udm3769-p1ulv23839) Units=km Length=0.0154844 bus1=p1udm3769.1.2 bus2=p1ulv23839.1.2 switch=n enabled=y phases=2 Linecode=1P_OH_AL_2/0_Rucina_0_416_0_2_2_2_2

New Line.l(r:p1udm3769-p1udm3771) Units=km Length=0.019453000000000005 bus1=p1udm3771.1.2 bus2=p1udm3769.1.2 switch=n enabled=y phases=2 Linecode=1P_OH_AL_2/0_Rucina_0_416_0_2_2_2_2

New Line.l(r:p1udm3771-p1udt1030lv) Units=km Length=0.0194617 bus1=p1udt1030lv.1.2 bus2=p1udm3771.1.2 switch=n enabled=y phases=2 Linecode=1P_OH_AL_2/0_Rucina_0_416_0_2_2_2_2

New Line.l(r:p1udt1031lv-p1ulv1051) Units=km Length=0.0152723 bus1=p1udt1031lv.1.2 bus2=p1ulv1051.1.2 switch=n enabled=y phases=2 Linecode=1P_UG_AL_1/0_Brenau_0_416_0_2_2_2_2

New Line.l(r:p1udt1031lv-p1ulv53489) Units=km Length=0.016819800000000003 bus1=p1udt1031lv.1.2 bus2=p1ulv53489.1.2 switch=n enabled=y phases=2 Linecode=1P_UG_AL_1/0_Brenau_0_416_0_2_2_2_2

New Line.l(r:p1udm3773-p1ulv18721) Units=km Length=0.014854200000000001 bus1=p1udm3773.1.2 bus2=p1ulv18721.1.2 switch=n enabled=y phases=2 Linecode=1P_UG_AL_1/0_Brenau_0_416_0_2_2_2_2

New Line.l(r:p1udm3773-p1udt1031lv) Units=km Length=0.0185662 bus1=p1udt1031lv.1.2 bus2=p1udm3773.1.2 switch=n enabled=y phases=2 Linecode=1P_UG_AL_1/0_Brenau_0_416_0_2_2_2_2

New Line.l(r:p1udm3775-p1ulv56570) Units=km Length=0.0172691 bus1=p1udm3775.1.2 bus2=p1ulv56570.1.2 switch=n enabled=y phases=2 Linecode=1P_UG_AL_1/0_Brenau_0_416_0_2_2_2_2

New Line.l(r:p1udm3775-p1udt1031lv) Units=km Length=0.0185612 bus1=p1udt1031lv.1.2 bus2=p1udm3775.1.2 switch=n enabled=y phases=2 Linecode=1P_UG_AL_1/0_Brenau_0_416_0_2_2_2_2

New Line.l(r:p1udm3776-p1ulv1052) Units=km Length=0.0155515 bus1=p1udm3776.1.2 bus2=p1ulv1052.1.2 switch=n enabled=y phases=2 Linecode=1P_UG_AL_1/0_Brenau_0_416_0_2_2_2_2

New Line.l(r:p1udm3776-p1udt1032lv) Units=km Length=0.00875318 bus1=p1udt1032lv.1.2 bus2=p1udm3776.1.2 switch=n enabled=y phases=2 Linecode=1P_UG_AL_1/0_Brenau_0_416_0_2_2_2_2

New Line.l(r:p1udm3777-p1ulv6805) Units=km Length=0.0146874 bus1=p1udm3777.1.2 bus2=p1ulv6805.1.2 switch=n enabled=y phases=2 Linecode=1P_UG_AL_1/0_Brenau_0_416_0_2_2_2_2

New Line.l(r:p1udm3777-p1ulv26375) Units=km Length=0.0123117 bus1=p1udm3777.1.2 bus2=p1ulv26375.1.2 switch=n enabled=y phases=2 Linecode=1P_UG_AL_1/0_Brenau_0_416_0_2_2_2_2

New Line.l(r:p1udm3777-p1udt1032lv) Units=km Length=0.00875318 bus1=p1udt1032lv.1.2 bus2=p1udm3777.1.2 switch=n enabled=y phases=2 Linecode=1P_UG_AL_4/0_Sweetbriar_0_416_0_2_2_2_2

New Line.l(r:p1udm3779-p1ulv1054) Units=km Length=0.0160215 bus1=p1udm3779.1.2 bus2=p1ulv1054.1.2 switch=n enabled=y phases=2 Linecode=1P_UG_AL_1/0_Brenau_0_416_0_2_2_2_2

New Line.l(r:p1udm3779-p1ulv43466) Units=km Length=0.0182866 bus1=p1udm3779.1.2 bus2=p1ulv43466.1.2 switch=n enabled=y phases=2 Linecode=1P_UG_AL_1/0_Brenau_0_416_0_2_2_2_2

New Line.l(r:p1udm3782-p1ulv32702) Units=km Length=0.0157053 bus1=p1udm3782.1.2 bus2=p1ulv32702.1.2 switch=n enabled=y phases=2 Linecode=1P_UG_AL_1/0_Brenau_0_416_0_2_2_2_2

New Line.l(r:p1udm3779-p1udm3782) Units=km Length=0.00988569 bus1=p1udm3779.1.2 bus2=p1udm3782.1.2 switch=n enabled=y phases=2 Linecode=1P_UG_AL_1/0_Brenau_0_416_0_2_2_2_2

New Line.l(r:p1udm3779-p1udt1033lv) Units=km Length=0.009882740000000001 bus1=p1udt1033lv.1.2 bus2=p1udm3779.1.2 switch=n enabled=y phases=2 Linecode=1P_UG_AL_4/0_Sweetbriar_0_416_0_2_2_2_2

New Line.l(r:p1udm3780-p1ulv3003) Units=km Length=0.017011200000000004 bus1=p1udm3780.1.2 bus2=p1ulv3003.1.2 switch=n enabled=y phases=2 Linecode=1P_UG_AL_1/0_Brenau_0_416_0_2_2_2_2

New Line.l(r:p1udm3784-p1ulv47875) Units=km Length=0.0156741 bus1=p1udm3784.1.2 bus2=p1ulv47875.1.2 switch=n enabled=y phases=2 Linecode=1P_UG_AL_1/0_Brenau_0_416_0_2_2_2_2

New Line.l(r:p1udm3781-p1ulv12402) Units=km Length=0.0157065 bus1=p1udm3781.1.2 bus2=p1ulv12402.1.2 switch=n enabled=y phases=2 Linecode=1P_UG_AL_1/0_Brenau_0_416_0_2_2_2_2

New Line.l(r:p1udm3781-p1udm3784) Units=km Length=0.009891130000000001 bus1=p1udm3784.1.2 bus2=p1udm3781.1.2 switch=n enabled=y phases=2 Linecode=1P_UG_AL_1/0_Brenau_0_416_0_2_2_2_2

New Line.l(r:p1udm3780-p1udm3784) Units=km Length=0.00988569 bus1=p1udm3780.1.2 bus2=p1udm3784.1.2 switch=n enabled=y phases=2 Linecode=1P_UG_AL_4/0_Sweetbriar_0_416_0_2_2_2_2

New Line.l(r:p1udm3780-p1udt1033lv) Units=km Length=0.009891130000000001 bus1=p1udt1033lv.1.2 bus2=p1udm3780.1.2 switch=n enabled=y phases=2 Linecode=1P_UG_AL_4/0_Sweetbriar_0_416_0_2_2_2_2

New Line.l(r:p1udm3891-p1ulv1088) Units=km Length=0.0153101 bus1=p1udm3891.1.2 bus2=p1ulv1088.1.2 switch=n enabled=y phases=2 Linecode=1P_UG_AL_1/0_Brenau_0_416_0_2_2_2_2

New Line.l(r:p1udm3894-p1ulv49746) Units=km Length=0.0145837 bus1=p1udm3894.1.2 bus2=p1ulv49746.1.2 switch=n enabled=y phases=2 Linecode=1P_UG_AL_1/0_Brenau_0_416_0_2_2_2_2

New Line.l(r:p1udm3891-p1udm3894) Units=km Length=0.00862639 bus1=p1udm3891.1.2 bus2=p1udm3894.1.2 switch=n enabled=y phases=2 Linecode=1P_UG_AL_1/0_Brenau_0_416_0_2_2_2_2

New Line.l(r:p1udm3891-p1udt1065lv) Units=km Length=0.00862639 bus1=p1udt1065lv.1.2 bus2=p1udm3891.1.2 switch=n enabled=y phases=2 Linecode=1P_UG_AL_4/0_Sweetbriar_0_416_0_2_2_2_2

New Line.l(r:p1udm3892-p1ulv3034) Units=km Length=0.015046900000000002 bus1=p1udm3892.1.2 bus2=p1ulv3034.1.2 switch=n enabled=y phases=2 Linecode=1P_UG_AL_1/0_Brenau_0_416_0_2_2_2_2

New Line.l(r:p1udm3892-p1ulv43508) Units=km Length=0.0148617 bus1=p1udm3892.1.2 bus2=p1ulv43508.1.2 switch=n enabled=y phases=2 Linecode=1P_UG_AL_1/0_Brenau_0_416_0_2_2_2_2

New Line.l(r:p1udm3892-p1udt1065lv) Units=km Length=0.00861782 bus1=p1udt1065lv.1.2 bus2=p1udm3892.1.2 switch=n enabled=y phases=2 Linecode=1P_UG_AL_4/0_Sweetbriar_0_416_0_2_2_2_2

New Line.l(r:p1udt1066lv-p1ulv30210) Units=km Length=0.015234000000000001 bus1=p1udt1066lv.1.2 bus2=p1ulv30210.1.2 switch=n enabled=y phases=2 Linecode=1P_UG_AL_1/0_Brenau_0_416_0_2_2_2_2

New Line.l(r:p1udm3895-p1ulv1089) Units=km Length=0.0196395 bus1=p1udm3895.1.2 bus2=p1ulv1089.1.2 switch=n enabled=y phases=2 Linecode=1P_UG_AL_1/0_Brenau_0_416_0_2_2_2_2

New Line.l(r:p1udm3895-p1udt1066lv) Units=km Length=0.0179969 bus1=p1udt1066lv.1.2 bus2=p1udm3895.1.2 switch=n enabled=y phases=2 Linecode=1P_UG_AL_1/0_Brenau_0_416_0_2_2_2_2

New Line.l(r:p1udm3896-p1ulv23236) Units=km Length=0.0165997 bus1=p1udm3896.1.2 bus2=p1ulv23236.1.2 switch=n enabled=y phases=2 Linecode=1P_UG_AL_1/0_Brenau_0_416_0_2_2_2_2

New Line.l(r:p1udm3896-p1udt1066lv) Units=km Length=0.00900725 bus1=p1udt1066lv.1.2 bus2=p1udm3896.1.2 switch=n enabled=y phases=2 Linecode=1P_UG_AL_1/0_Brenau_0_416_0_2_2_2_2

New Line.l(r:p1udm3898-p1ulv1090) Units=km Length=0.0133838 bus1=p1udm3898.1.2 bus2=p1ulv1090.1.2 switch=n enabled=y phases=2 Linecode=1P_UG_AL_1/0_Brenau_0_416_0_2_2_2_2

New Line.l(r:p1udm3898-p1udt1067lv) Units=km Length=0.0260409 bus1=p1udt1067lv.1.2 bus2=p1udm3898.1.2 switch=n enabled=y phases=2 Linecode=1P_UG_AL_1/0_Brenau_0_416_0_2_2_2_2

New Line.l(r:p1udm3899-p1ulv40388) Units=km Length=0.022717100000000004 bus1=p1udm3899.1.2 bus2=p1ulv40388.1.2 switch=n enabled=y phases=2 Linecode=1P_UG_AL_1/0_Brenau_0_416_0_2_2_2_2

New Line.l(r:p1udm3899-p1udt1067lv) Units=km Length=0.0195273 bus1=p1udt1067lv.1.2 bus2=p1udm3899.1.2 switch=n enabled=y phases=2 Linecode=1P_UG_AL_1/0_Brenau_0_416_0_2_2_2_2

New Line.l(r:p1udm3900-p1ulv1091) Units=km Length=0.013489 bus1=p1udm3900.1.2 bus2=p1ulv1091.1.2 switch=n enabled=y phases=2 Linecode=1P_UG_AL_1/0_Brenau_0_416_0_2_2_2_2

New Line.l(r:p1udm3900-p1udt1068lv) Units=km Length=0.0460603 bus1=p1udt1068lv.1.2 bus2=p1udm3900.1.2 switch=n enabled=y phases=2 Linecode=1P_UG_AL_1/0_Brenau_0_416_0_2_2_2_2

New Line.l(r:p1udm3901-p1ulv53534) Units=km Length=0.01858 bus1=p1udm3901.1.2 bus2=p1ulv53534.1.2 switch=n enabled=y phases=2 Linecode=1P_UG_AL_1/0_Brenau_0_416_0_2_2_2_2

New Line.l(r:p1udm3901-p1udt1068lv) Units=km Length=0.0185124 bus1=p1udt1068lv.1.2 bus2=p1udm3901.1.2 switch=n enabled=y phases=2 Linecode=1P_UG_AL_1/0_Brenau_0_416_0_2_2_2_2

New Line.l(r:p1udm6054-p1ulv47878) Units=km Length=0.0198223 bus1=p1udm6054.1.2 bus2=p1ulv47878.1.2 switch=n enabled=y phases=2 Linecode=1P_UG_AL_1/0_Brenau_0_416_0_2_2_2_2

New Line.l(r:p1udm6054-p1udt1654lv) Units=km Length=0.00841723 bus1=p1udt1654lv.1.2 bus2=p1udm6054.1.2 switch=n enabled=y phases=2 Linecode=1P_UG_AL_1/0_Brenau_0_416_0_2_2_2_2

New Line.l(r:p1udm6055-p1ulv59586) Units=km Length=0.0099797 bus1=p1udm6055.1.2 bus2=p1ulv59586.1.2 switch=n enabled=y phases=2 Linecode=1P_UG_AL_1/0_Brenau_0_416_0_2_2_2_2

New Line.l(r:p1udm6053-p1ulv1726) Units=km Length=0.0147996 bus1=p1udm6053.1.2 bus2=p1ulv1726.1.2 switch=n enabled=y phases=2 Linecode=1P_UG_AL_1/0_Brenau_0_416_0_2_2_2_2

New Line.l(r:p1udm6053-p1udm6055) Units=km Length=0.0168345 bus1=p1udm6055.1.2 bus2=p1udm6053.1.2 switch=n enabled=y phases=2 Linecode=1P_UG_AL_1/0_Brenau_0_416_0_2_2_2_2

New Line.l(r:p1udm6055-p1udt1654lv) Units=km Length=0.00840952 bus1=p1udt1654lv.1.2 bus2=p1udm6055.1.2 switch=n enabled=y phases=2 Linecode=1P_UG_AL_4/0_Sweetbriar_0_416_0_2_2_2_2

New Line.l(r:p1udt1668lv-p1ulv1741) Units=km Length=0.0161666 bus1=p1udt1668lv.1.2 bus2=p1ulv1741.1.2 switch=n enabled=y phases=2 Linecode=1P_UG_AL_1/0_Brenau_0_416_0_2_2_2_2

New Line.l(r:p1udm6098-p1ulv21915) Units=km Length=0.0151247 bus1=p1udm6098.1.2 bus2=p1ulv21915.1.2 switch=n enabled=y phases=2 Linecode=1P_UG_AL_1/0_Brenau_0_416_0_2_2_2_2

New Line.l(r:p1udm6098-p1udt1668lv) Units=km Length=0.019969300000000002 bus1=p1udt1668lv.1.2 bus2=p1udm6098.1.2 switch=n enabled=y phases=2 Linecode=1P_UG_AL_1/0_Brenau_0_416_0_2_2_2_2

New Line.l(r:p1udm6099-p1ulv34650) Units=km Length=0.0143676 bus1=p1udm6099.1.2 bus2=p1ulv34650.1.2 switch=n enabled=y phases=2 Linecode=1P_UG_AL_2/0_Converse_0_416_0_2_2_2_2

New Line.l(r:p1udm6099-p1udt1668lv) Units=km Length=0.00999296 bus1=p1udt1668lv.1.2 bus2=p1udm6099.1.2 switch=n enabled=y phases=2 Linecode=1P_UG_AL_2/0_Converse_0_416_0_2_2_2_2

New Line.l(r:p1udt1669lv-p1ulv16116) Units=km Length=0.0182431 bus1=p1udt1669lv.1.2 bus2=p1ulv16116.1.2 switch=n enabled=y phases=2 Linecode=1P_OH_AL_2/0_Rucina_0_416_0_2_2_2_2

New Line.l(r:p1udt1669lv-p1ulv46033) Units=km Length=0.0191067 bus1=p1udt1669lv.1.2 bus2=p1ulv46033.1.2 switch=n enabled=y phases=2 Linecode=1P_OH_AL_2/0_Rucina_0_416_0_2_2_2_2

New Line.l(r:p1udm6100-p1ulv1742) Units=km Length=0.019687000000000003 bus1=p1udm6100.1.2 bus2=p1ulv1742.1.2 switch=n enabled=y phases=2 Linecode=1P_OH_AL_2/0_Rucina_0_416_0_2_2_2_2

New Line.l(r:p1udm6105-p1ulv65251) Units=km Length=0.0142908 bus1=p1udm6105.1.2 bus2=p1ulv65251.1.2 switch=n enabled=y phases=2 Linecode=1P_OH_AL_2/0_Rucina_0_416_0_2_2_2_2

New Line.l(r:p1udm6100-p1udm6105) Units=km Length=0.0611358 bus1=p1udm6100.1.2 bus2=p1udm6105.1.2 switch=n enabled=y phases=2 Linecode=1P_OH_AL_4/0_Zuzara_0_416_0_2_2_2_2

New Line.l(r:p1udm6100-p1udt1669lv) Units=km Length=0.0185252 bus1=p1udt1669lv.1.2 bus2=p1udm6100.1.2 switch=n enabled=y phases=2 Linecode=1P_OH_AL_2/0_Rucina_0_416_0_2_2_2_2

New Line.l(r:p1udm6101-p1ulv10522) Units=km Length=0.0175685 bus1=p1udm6101.1.2 bus2=p1ulv10522.1.2 switch=n enabled=y phases=2 Linecode=1P_OH_AL_2/0_Rucina_0_416_0_2_2_2_2

New Line.l(r:p1udm6101-p1ulv33390) Units=km Length=0.0200741 bus1=p1udm6101.1.2 bus2=p1ulv33390.1.2 switch=n enabled=y phases=2 Linecode=1P_OH_AL_2/0_Rucina_0_416_0_2_2_2_2

New Line.l(r:p1udm6101-p1udt1669lv) Units=km Length=0.018529500000000004 bus1=p1udt1669lv.1.2 bus2=p1udm6101.1.2 switch=n enabled=y phases=2 Linecode=1P_OH_AL_2/0_Rucina_0_416_0_2_2_2_2

New Line.l(r:p1udt1670lv-p1ulv1743) Units=km Length=0.0162587 bus1=p1udt1670lv.1.2 bus2=p1ulv1743.1.2 switch=n enabled=y phases=2 Linecode=1P_UG_AL_1/0_Brenau_0_416_0_2_2_2_2

New Line.l(r:p1udt1670lv-p1ulv36550) Units=km Length=0.0152215 bus1=p1udt1670lv.1.2 bus2=p1ulv36550.1.2 switch=n enabled=y phases=2 Linecode=1P_UG_AL_1/0_Brenau_0_416_0_2_2_2_2

New Line.l(r:p1udt1671lv-p1ulv1744) Units=km Length=0.0147011 bus1=p1udt1671lv.1.2 bus2=p1ulv1744.1.2 switch=n enabled=y phases=2 Linecode=1P_UG_AL_1/0_Brenau_0_416_0_2_2_2_2

New Line.l(r:p1udt1671lv-p1ulv39042) Units=km Length=0.0178131 bus1=p1udt1671lv.1.2 bus2=p1ulv39042.1.2 switch=n enabled=y phases=2 Linecode=1P_UG_AL_1/0_Brenau_0_416_0_2_2_2_2

New Line.l(r:p1udt1671lv-p1ulv53463) Units=km Length=0.017307600000000003 bus1=p1udt1671lv.1.2 bus2=p1ulv53463.1.2 switch=n enabled=y phases=2 Linecode=1P_UG_AL_1/0_Brenau_0_416_0_2_2_2_2

New Line.l(r:p1udt1672lv-p1ulv35287) Units=km Length=0.0141369 bus1=p1udt1672lv.1.2 bus2=p1ulv35287.1.2 switch=n enabled=y phases=2 Linecode=1P_UG_AL_1/0_Brenau_0_416_0_2_2_2_2

New Line.l(r:p1udm6111-p1ulv1745) Units=km Length=0.0158644 bus1=p1udm6111.1.2 bus2=p1ulv1745.1.2 switch=n enabled=y phases=2 Linecode=1P_UG_AL_1/0_Brenau_0_416_0_2_2_2_2

New Line.l(r:p1udm6111-p1udt1672lv) Units=km Length=0.0096912 bus1=p1udt1672lv.1.2 bus2=p1udm6111.1.2 switch=n enabled=y phases=2 Linecode=1P_UG_AL_1/0_Brenau_0_416_0_2_2_2_2

New Line.l(r:p1udm6112-p1ulv28903) Units=km Length=0.0173641 bus1=p1udm6112.1.2 bus2=p1ulv28903.1.2 switch=n enabled=y phases=2 Linecode=1P_UG_AL_1/0_Brenau_0_416_0_2_2_2_2

New Line.l(r:p1udm6112-p1udt1672lv) Units=km Length=0.0096912 bus1=p1udt1672lv.1.2 bus2=p1udm6112.1.2 switch=n enabled=y phases=2 Linecode=1P_UG_AL_1/0_Brenau_0_416_0_2_2_2_2

New Line.l(r:p1udm8091-p1ulv2358) Units=km Length=0.028172900000000004 bus1=p1udm8091.1.2 bus2=p1ulv2358.1.2 switch=n enabled=y phases=2 Linecode=1P_UG_AL_1/0_Brenau_0_416_0_2_2_2_2

New Line.l(r:p1udm8091-p1udt2232lv) Units=km Length=0.009706820000000001 bus1=p1udt2232lv.1.2 bus2=p1udm8091.1.2 switch=n enabled=y phases=2 Linecode=1P_UG_AL_1/0_Brenau_0_416_0_2_2_2_2

New Line.l(r:p1udm8092-p1ulv40347) Units=km Length=0.0157661 bus1=p1udm8092.1.2 bus2=p1ulv40347.1.2 switch=n enabled=y phases=2 Linecode=1P_UG_AL_1/0_Brenau_0_416_0_2_2_2_2

New Line.l(r:p1udm8092-p1ulv63349) Units=km Length=0.0214693 bus1=p1udm8092.1.2 bus2=p1ulv63349.1.2 switch=n enabled=y phases=2 Linecode=1P_UG_AL_1/0_Brenau_0_416_0_2_2_2_2

New Line.l(r:p1udm8092-p1udt2232lv) Units=km Length=0.00969825 bus1=p1udt2232lv.1.2 bus2=p1udm8092.1.2 switch=n enabled=y phases=2 Linecode=1P_UG_AL_4/0_Sweetbriar_0_416_0_2_2_2_2

New Line.l(r:p1udt2233lv-p1ulv20657) Units=km Length=0.0167871 bus1=p1udt2233lv.1.2 bus2=p1ulv20657.1.2 switch=n enabled=y phases=2 Linecode=1P_UG_AL_1/0_Brenau_0_416_0_2_2_2_2

New Line.l(r:p1udm8094-p1ulv2359) Units=km Length=0.0162741 bus1=p1udm8094.1.2 bus2=p1ulv2359.1.2 switch=n enabled=y phases=2 Linecode=1P_UG_AL_1/0_Brenau_0_416_0_2_2_2_2

New Line.l(r:p1udm8094-p1ulv42775) Units=km Length=0.0152099 bus1=p1udm8094.1.2 bus2=p1ulv42775.1.2 switch=n enabled=y phases=2 Linecode=1P_UG_AL_1/0_Brenau_0_416_0_2_2_2_2

New Line.l(r:p1udm8094-p1udt2233lv) Units=km Length=0.00960582 bus1=p1udt2233lv.1.2 bus2=p1udm8094.1.2 switch=n enabled=y phases=2 Linecode=1P_UG_AL_4/0_Sweetbriar_0_416_0_2_2_2_2

New Line.l(r:p1udm8095-p1ulv16115) Units=km Length=0.0159698 bus1=p1udm8095.1.2 bus2=p1ulv16115.1.2 switch=n enabled=y phases=2 Linecode=1P_UG_AL_1/0_Brenau_0_416_0_2_2_2_2

New Line.l(r:p1udm8095-p1ulv27678) Units=km Length=0.0140435 bus1=p1udm8095.1.2 bus2=p1ulv27678.1.2 switch=n enabled=y phases=2 Linecode=1P_UG_AL_1/0_Brenau_0_416_0_2_2_2_2

New Line.l(r:p1udm8095-p1udt2233lv) Units=km Length=0.0192192 bus1=p1udt2233lv.1.2 bus2=p1udm8095.1.2 switch=n enabled=y phases=2 Linecode=1P_UG_AL_4/0_Sweetbriar_0_416_0_2_2_2_2

New Line.l(r:p1udm8100-p1ulv15475) Units=km Length=0.0166998 bus1=p1udm8100.1.2 bus2=p1ulv15475.1.2 switch=n enabled=y phases=2 Linecode=1P_UG_AL_1/0_Brenau_0_416_0_2_2_2_2

New Line.l(r:p1udm8100-p1ulv53494) Units=km Length=0.0162302 bus1=p1udm8100.1.2 bus2=p1ulv53494.1.2 switch=n enabled=y phases=2 Linecode=1P_UG_AL_1/0_Brenau_0_416_0_2_2_2_2

New Line.l(r:p1udm8099-p1ulv2360) Units=km Length=0.0150229 bus1=p1udm8099.1.2 bus2=p1ulv2360.1.2 switch=n enabled=y phases=2 Linecode=1P_UG_AL_1/0_Brenau_0_416_0_2_2_2_2

New Line.l(r:p1udm8099-p1udm8100) Units=km Length=0.00978115 bus1=p1udm8100.1.2 bus2=p1udm8099.1.2 switch=n enabled=y phases=2 Linecode=1P_UG_AL_1/0_Brenau_0_416_0_2_2_2_2

New Line.l(r:p1udm8100-p1udt2234lv) Units=km Length=0.00979005 bus1=p1udt2234lv.1.2 bus2=p1udm8100.1.2 switch=n enabled=y phases=2 Linecode=1P_UG_AL_4/0_Sweetbriar_0_416_0_2_2_2_2

New Line.l(r:p1udm8101-p1ulv42776) Units=km Length=0.0163659 bus1=p1udm8101.1.2 bus2=p1ulv42776.1.2 switch=n enabled=y phases=2 Linecode=1P_UG_AL_1/0_Brenau_0_416_0_2_2_2_2

New Line.l(r:p1udm8101-p1udt2234lv) Units=km Length=0.0382308 bus1=p1udt2234lv.1.2 bus2=p1udm8101.1.2 switch=n enabled=y phases=2 Linecode=1P_UG_AL_1/0_Brenau_0_416_0_2_2_2_2

New Line.l(r:p1udm8103-p1ulv2362) Units=km Length=0.0149244 bus1=p1udm8103.1.2 bus2=p1ulv2362.1.2 switch=n enabled=y phases=2 Linecode=1P_UG_AL_1/0_Brenau_0_416_0_2_2_2_2

New Line.l(r:p1udm8106-p1ulv34017) Units=km Length=0.0180525 bus1=p1udm8106.1.2 bus2=p1ulv34017.1.2 switch=n enabled=y phases=2 Linecode=1P_UG_AL_1/0_Brenau_0_416_0_2_2_2_2

New Line.l(r:p1udm8103-p1udm8106) Units=km Length=0.006994 bus1=p1udm8103.1.2 bus2=p1udm8106.1.2 switch=n enabled=y phases=2 Linecode=1P_UG_AL_1/0_Brenau_0_416_0_2_2_2_2

New Line.l(r:p1udm8103-p1udt2235lv) Units=km Length=0.006994 bus1=p1udt2235lv.1.2 bus2=p1udm8103.1.2 switch=n enabled=y phases=2 Linecode=1P_UG_AL_4/0_Sweetbriar_0_416_0_2_2_2_2

New Line.l(r:p1udm8105-p1ulv19387) Units=km Length=0.0130041 bus1=p1udm8105.1.2 bus2=p1ulv19387.1.2 switch=n enabled=y phases=2 Linecode=1P_UG_AL_1/0_Brenau_0_416_0_2_2_2_2

New Line.l(r:p1udm8104-p1ulv9279) Units=km Length=0.0171413 bus1=p1udm8104.1.2 bus2=p1ulv9279.1.2 switch=n enabled=y phases=2 Linecode=1P_UG_AL_1/0_Brenau_0_416_0_2_2_2_2

New Line.l(r:p1udm8104-p1udm8105) Units=km Length=0.00672459 bus1=p1udm8105.1.2 bus2=p1udm8104.1.2 switch=n enabled=y phases=2 Linecode=1P_UG_AL_1/0_Brenau_0_416_0_2_2_2_2

New Line.l(r:p1udm8105-p1udt2235lv) Units=km Length=0.00671045 bus1=p1udt2235lv.1.2 bus2=p1udm8105.1.2 switch=n enabled=y phases=2 Linecode=1P_UG_AL_4/0_Sweetbriar_0_416_0_2_2_2_2

New Line.l(r:p1udt2236lv-p1ulv52221) Units=km Length=0.0145278 bus1=p1udt2236lv.1.2 bus2=p1ulv52221.1.2 switch=n enabled=y phases=2 Linecode=1P_UG_AL_1/0_Brenau_0_416_0_2_2_2_2

New Line.l(r:p1udm8107-p1ulv2363) Units=km Length=0.0131391 bus1=p1udm8107.1.2 bus2=p1ulv2363.1.2 switch=n enabled=y phases=2 Linecode=1P_UG_AL_1/0_Brenau_0_416_0_2_2_2_2

New Line.l(r:p1udm8108-p1ulv17396) Units=km Length=0.0227831 bus1=p1udm8108.1.2 bus2=p1ulv17396.1.2 switch=n enabled=y phases=2 Linecode=1P_UG_AL_1/0_Brenau_0_416_0_2_2_2_2

New Line.l(r:p1udm8107-p1udm8108) Units=km Length=0.00890767 bus1=p1udm8107.1.2 bus2=p1udm8108.1.2 switch=n enabled=y phases=2 Linecode=1P_UG_AL_1/0_Brenau_0_416_0_2_2_2_2

New Line.l(r:p1udm8107-p1udt2236lv) Units=km Length=0.00890358 bus1=p1udt2236lv.1.2 bus2=p1udm8107.1.2 switch=n enabled=y phases=2 Linecode=1P_UG_AL_4/0_Sweetbriar_0_416_0_2_2_2_2

New Line.l(r:p1udm8110-p1ulv52222) Units=km Length=0.0163872 bus1=p1udm8110.1.2 bus2=p1ulv52222.1.2 switch=n enabled=y phases=2 Linecode=1P_UG_AL_1/0_Brenau_0_416_0_2_2_2_2

New Line.l(r:p1udm8110-p1udt2236lv) Units=km Length=0.044617800000000006 bus1=p1udt2236lv.1.2 bus2=p1udm8110.1.2 switch=n enabled=y phases=2 Linecode=1P_UG_AL_1/0_Brenau_0_416_0_2_2_2_2

New Line.l(r:p1udm8111-p1ulv2364) Units=km Length=0.0158031 bus1=p1udm8111.1.2 bus2=p1ulv2364.1.2 switch=n enabled=y phases=2 Linecode=1P_UG_AL_1/0_Brenau_0_416_0_2_2_2_2

New Line.l(r:p1udm8111-p1udt2237lv) Units=km Length=0.0187742 bus1=p1udt2237lv.1.2 bus2=p1udm8111.1.2 switch=n enabled=y phases=2 Linecode=1P_UG_AL_1/0_Brenau_0_416_0_2_2_2_2

New Line.l(r:p1udm8112-p1ulv21312) Units=km Length=0.0133561 bus1=p1udm8112.1.2 bus2=p1ulv21312.1.2 switch=n enabled=y phases=2 Linecode=1P_UG_AL_2/0_Converse_0_416_0_2_2_2_2

New Line.l(r:p1udm8113-p1ulv58979) Units=km Length=0.0141467 bus1=p1udm8113.1.2 bus2=p1ulv58979.1.2 switch=n enabled=y phases=2 Linecode=1P_UG_AL_1/0_Brenau_0_416_0_2_2_2_2

New Line.l(r:p1udm8112-p1udm8113) Units=km Length=0.00938708 bus1=p1udm8112.1.2 bus2=p1udm8113.1.2 switch=n enabled=y phases=2 Linecode=1P_UG_AL_1/0_Brenau_0_416_0_2_2_2_2

New Line.l(r:p1udm8112-p1udt2237lv) Units=km Length=0.00937816 bus1=p1udt2237lv.1.2 bus2=p1udm8112.1.2 switch=n enabled=y phases=2 Linecode=1P_UG_AL_4/0_Sweetbriar_0_416_0_2_2_2_2

New Line.l(r:p1udt2238lv-p1ulv22496) Units=km Length=0.0167863 bus1=p1udt2238lv.1.2 bus2=p1ulv22496.1.2 switch=n enabled=y phases=2 Linecode=1P_UG_AL_1/0_Brenau_0_416_0_2_2_2_2

New Line.l(r:p1udt2238lv-p1ulv57753) Units=km Length=0.018636600000000003 bus1=p1udt2238lv.1.2 bus2=p1ulv57753.1.2 switch=n enabled=y phases=2 Linecode=1P_UG_AL_1/0_Brenau_0_416_0_2_2_2_2

New Line.l(r:p1udm8115-p1ulv4228) Units=km Length=0.0130161 bus1=p1udm8115.1.2 bus2=p1ulv4228.1.2 switch=n enabled=y phases=2 Linecode=1P_UG_AL_1/0_Brenau_0_416_0_2_2_2_2

New Line.l(r:p1udm8118-p1ulv44733) Units=km Length=0.0179551 bus1=p1udm8118.1.2 bus2=p1ulv44733.1.2 switch=n enabled=y phases=2 Linecode=1P_UG_AL_1/0_Brenau_0_416_0_2_2_2_2

New Line.l(r:p1udm8115-p1udm8118) Units=km Length=0.00909266 bus1=p1udm8115.1.2 bus2=p1udm8118.1.2 switch=n enabled=y phases=2 Linecode=1P_UG_AL_1/0_Brenau_0_416_0_2_2_2_2

New Line.l(r:p1udm8115-p1udt2238lv) Units=km Length=0.0181768 bus1=p1udt2238lv.1.2 bus2=p1udm8115.1.2 switch=n enabled=y phases=2 Linecode=1P_UG_AL_4/0_Sweetbriar_0_416_0_2_2_2_2

New Line.l(r:p1udm8117-p1ulv35915) Units=km Length=0.0162377 bus1=p1udm8117.1.2 bus2=p1ulv35915.1.2 switch=n enabled=y phases=2 Linecode=1P_UG_AL_1/0_Brenau_0_416_0_2_2_2_2

New Line.l(r:p1udm8114-p1ulv2365) Units=km Length=0.0128316 bus1=p1udm8114.1.2 bus2=p1ulv2365.1.2 switch=n enabled=y phases=2 Linecode=1P_UG_AL_1/0_Brenau_0_416_0_2_2_2_2

New Line.l(r:p1udm8114-p1udm8117) Units=km Length=0.0278579 bus1=p1udm8117.1.2 bus2=p1udm8114.1.2 switch=n enabled=y phases=2 Linecode=1P_UG_AL_1/0_Brenau_0_416_0_2_2_2_2

New Line.l(r:p1udm8117-p1udt2238lv) Units=km Length=0.036359 bus1=p1udt2238lv.1.2 bus2=p1udm8117.1.2 switch=n enabled=y phases=2 Linecode=1P_UG_AL_4/0_Sweetbriar_0_416_0_2_2_2_2

New Line.l(r:p1udt2258lv-p1ulv2386) Units=km Length=0.0136152 bus1=p1udt2258lv.1.2 bus2=p1ulv2386.1.2 switch=n enabled=y phases=2 Linecode=1P_UG_AL_1/0_Brenau_0_416_0_2_2_2_2

New Line.l(r:p1udm8181-p1ulv28347) Units=km Length=0.01502 bus1=p1udm8181.1.2 bus2=p1ulv28347.1.2 switch=n enabled=y phases=2 Linecode=1P_UG_AL_1/0_Brenau_0_416_0_2_2_2_2

New Line.l(r:p1udm8181-p1udt2258lv) Units=km Length=0.009447880000000002 bus1=p1udt2258lv.1.2 bus2=p1udm8181.1.2 switch=n enabled=y phases=2 Linecode=1P_UG_AL_1/0_Brenau_0_416_0_2_2_2_2

New Line.l(r:p1udt2795lv-p1ulv42163) Units=km Length=0.013749700000000002 bus1=p1udt2795lv.1.2 bus2=p1ulv42163.1.2 switch=n enabled=y phases=2 Linecode=1P_UG_AL_1/0_Brenau_0_416_0_2_2_2_2

New Line.l(r:p1udm9967-p1ulv32039) Units=km Length=0.013176700000000001 bus1=p1udm9967.1.2 bus2=p1ulv32039.1.2 switch=n enabled=y phases=2 Linecode=1P_UG_AL_1/0_Brenau_0_416_0_2_2_2_2

New Line.l(r:p1udm9967-p1udt2795lv) Units=km Length=0.0090988 bus1=p1udt2795lv.1.2 bus2=p1udm9967.1.2 switch=n enabled=y phases=2 Linecode=1P_UG_AL_1/0_Brenau_0_416_0_2_2_2_2

New Line.l(r:p1udm9969-p1ulv49094) Units=km Length=0.012018 bus1=p1udm9969.1.2 bus2=p1ulv49094.1.2 switch=n enabled=y phases=2 Linecode=1P_UG_AL_1/0_Brenau_0_416_0_2_2_2_2

New Line.l(r:p1udm9969-p1ulv54119) Units=km Length=0.0107739 bus1=p1udm9969.1.2 bus2=p1ulv54119.1.2 switch=n enabled=y phases=2 Linecode=1P_UG_AL_1/0_Brenau_0_416_0_2_2_2_2

New Line.l(r:p1udm9966-p1ulv2981) Units=km Length=0.0122672 bus1=p1udm9966.1.2 bus2=p1ulv2981.1.2 switch=n enabled=y phases=2 Linecode=1P_UG_AL_1/0_Brenau_0_416_0_2_2_2_2

New Line.l(r:p1udm9966-p1udm9969) Units=km Length=0.0091021 bus1=p1udm9969.1.2 bus2=p1udm9966.1.2 switch=n enabled=y phases=2 Linecode=1P_UG_AL_1/0_Brenau_0_416_0_2_2_2_2

New Line.l(r:p1udm9969-p1udt2795lv) Units=km Length=0.0090988 bus1=p1udt2795lv.1.2 bus2=p1udm9969.1.2 switch=n enabled=y phases=2 Linecode=1P_UG_AL_4/0_Sweetbriar_0_416_0_2_2_2_2
