New Line.l(r:p3udm408-p3ulv300) Units=km Length=0.0211124 bus1=p3udm408.1.2 bus2=p3ulv300.1.2 switch=n enabled=y phases=2 Linecode=1P_UG_AL_1/0_Brenau_0_416_0_2_2_2_2

New Line.l(r:p3udm408-p3udt155lv) Units=km Length=0.00993381 bus1=p3udt155lv.1.2 bus2=p3udm408.1.2 switch=n enabled=y phases=2 Linecode=1P_UG_AL_1/0_Brenau_0_416_0_2_2_2_2

New Line.l(r:p3udm409-p3ulv67015) Units=km Length=0.0175935 bus1=p3udm409.1.2 bus2=p3ulv67015.1.2 switch=n enabled=y phases=2 Linecode=1P_UG_AL_1/0_Brenau_0_416_0_2_2_2_2

New Line.l(r:p3udm409-p3udt155lv) Units=km Length=0.00992502 bus1=p3udt155lv.1.2 bus2=p3udm409.1.2 switch=n enabled=y phases=2 Linecode=1P_UG_AL_1/0_Brenau_0_416_0_2_2_2_2

New Line.l(r:p3udt160lv-p3ulv305) Units=km Length=0.0247769 bus1=p3udt160lv.1.2 bus2=p3ulv305.1.2 switch=n enabled=y phases=2 Linecode=1P_UG_AL_1/0_Brenau_0_416_0_2_2_2_2

New Line.l(r:p3udt160lv-p3ulv44006) Units=km Length=0.0176301 bus1=p3udt160lv.1.2 bus2=p3ulv44006.1.2 switch=n enabled=y phases=2 Linecode=1P_UG_AL_1/0_Brenau_0_416_0_2_2_2_2

New Line.l(r:p3udm426-p3ulv77764) Units=km Length=0.0189007 bus1=p3udm426.1.2 bus2=p3ulv77764.1.2 switch=n enabled=y phases=2 Linecode=1P_UG_AL_1/0_Brenau_0_416_0_2_2_2_2

New Line.l(r:p3udm426-p3udt160lv) Units=km Length=0.00954512 bus1=p3udt160lv.1.2 bus2=p3udm426.1.2 switch=n enabled=y phases=2 Linecode=1P_UG_AL_1/0_Brenau_0_416_0_2_2_2_2

New Line.l(r:p3udm457-p3ulv315) Units=km Length=0.0238827 bus1=p3udm457.1.2 bus2=p3ulv315.1.2 switch=n enabled=y phases=2 Linecode=1P_UG_AL_1/0_Brenau_0_416_0_2_2_2_2

New Line.l(r:p3udm457-p3udt170lv) Units=km Length=0.0323567 bus1=p3udt170lv.1.2 bus2=p3udm457.1.2 switch=n enabled=y phases=2 Linecode=1P_UG_AL_1/0_Brenau_0_416_0_2_2_2_2

New Line.l(r:p3udm458-p3ulv77772) Units=km Length=0.0419947 bus1=p3udm458.1.2 bus2=p3ulv77772.1.2 switch=n enabled=y phases=2 Linecode=1P_UG_AL_1/0_Brenau_0_416_0_2_2_2_2

New Line.l(r:p3udm458-p3udt170lv) Units=km Length=0.0334915 bus1=p3udt170lv.1.2 bus2=p3udm458.1.2 switch=n enabled=y phases=2 Linecode=1P_UG_AL_1/0_Brenau_0_416_0_2_2_2_2

New Line.l(r:p3udt222lv-p3ulv368) Units=km Length=0.024462800000000003 bus1=p3udt222lv.1.2 bus2=p3ulv368.1.2 switch=n enabled=y phases=2 Linecode=1P_UG_AL_1/0_Brenau_0_416_0_2_2_2_2

New Line.l(r:p3udm653-p3ulv32472) Units=km Length=0.0180918 bus1=p3udm653.1.2 bus2=p3ulv32472.1.2 switch=n enabled=y phases=2 Linecode=1P_UG_AL_1/0_Brenau_0_416_0_2_2_2_2

New Line.l(r:p3udm653-p3udt222lv) Units=km Length=0.00982402 bus1=p3udt222lv.1.2 bus2=p3udm653.1.2 switch=n enabled=y phases=2 Linecode=1P_UG_AL_1/0_Brenau_0_416_0_2_2_2_2

New Line.l(r:p3udm654-p3ulv35577) Units=km Length=0.0191195 bus1=p3udm654.1.2 bus2=p3ulv35577.1.2 switch=n enabled=y phases=2 Linecode=1P_UG_AL_1/0_Brenau_0_416_0_2_2_2_2

New Line.l(r:p3udm654-p3udt222lv) Units=km Length=0.00982402 bus1=p3udt222lv.1.2 bus2=p3udm654.1.2 switch=n enabled=y phases=2 Linecode=1P_UG_AL_1/0_Brenau_0_416_0_2_2_2_2

New Line.l(r:p3udm655-p3ulv369) Units=km Length=0.0173289 bus1=p3udm655.1.2 bus2=p3ulv369.1.2 switch=n enabled=y phases=2 Linecode=1P_UG_AL_1/0_Brenau_0_416_0_2_2_2_2

New Line.l(r:p3udm655-p3udt223lv) Units=km Length=0.008051120000000002 bus1=p3udt223lv.1.2 bus2=p3udm655.1.2 switch=n enabled=y phases=2 Linecode=1P_UG_AL_1/0_Brenau_0_416_0_2_2_2_2

New Line.l(r:p3udm656-p3ulv63282) Units=km Length=0.0176906 bus1=p3udm656.1.2 bus2=p3ulv63282.1.2 switch=n enabled=y phases=2 Linecode=1P_UG_AL_1/0_Brenau_0_416_0_2_2_2_2

New Line.l(r:p3udm656-p3ulv68638) Units=km Length=0.0169881 bus1=p3udm656.1.2 bus2=p3ulv68638.1.2 switch=n enabled=y phases=2 Linecode=1P_UG_AL_1/0_Brenau_0_416_0_2_2_2_2

New Line.l(r:p3udm656-p3udt223lv) Units=km Length=0.008051120000000002 bus1=p3udt223lv.1.2 bus2=p3udm656.1.2 switch=n enabled=y phases=2 Linecode=1P_UG_AL_4/0_Sweetbriar_0_416_0_2_2_2_2

New Line.l(r:p3udt224lv-p3ulv370) Units=km Length=0.0136899 bus1=p3udt224lv.1.2 bus2=p3ulv370.1.2 switch=n enabled=y phases=2 Linecode=1P_UG_AL_1/0_Brenau_0_416_0_2_2_2_2

New Line.l(r:p3udm661-p3ulv48711) Units=km Length=0.0154588 bus1=p3udm661.1.2 bus2=p3ulv48711.1.2 switch=n enabled=y phases=2 Linecode=1P_UG_AL_1/0_Brenau_0_416_0_2_2_2_2

New Line.l(r:p3udm660-p3ulv27806) Units=km Length=0.013902200000000002 bus1=p3udm660.1.2 bus2=p3ulv27806.1.2 switch=n enabled=y phases=2 Linecode=1P_UG_AL_1/0_Brenau_0_416_0_2_2_2_2

New Line.l(r:p3udm660-p3udm661) Units=km Length=0.0100001 bus1=p3udm661.1.2 bus2=p3udm660.1.2 switch=n enabled=y phases=2 Linecode=1P_UG_AL_1/0_Brenau_0_416_0_2_2_2_2

New Line.l(r:p3udm661-p3udt224lv) Units=km Length=0.0100042 bus1=p3udt224lv.1.2 bus2=p3udm661.1.2 switch=n enabled=y phases=2 Linecode=1P_UG_AL_4/0_Sweetbriar_0_416_0_2_2_2_2

New Line.l(r:p3udm662-p3ulv59428) Units=km Length=0.016473 bus1=p3udm662.1.2 bus2=p3ulv59428.1.2 switch=n enabled=y phases=2 Linecode=1P_UG_AL_1/0_Brenau_0_416_0_2_2_2_2

New Line.l(r:p3udm659-p3ulv1911) Units=km Length=0.013973 bus1=p3udm659.1.2 bus2=p3ulv1911.1.2 switch=n enabled=y phases=2 Linecode=1P_UG_AL_1/0_Brenau_0_416_0_2_2_2_2

New Line.l(r:p3udm659-p3udm662) Units=km Length=0.00999538 bus1=p3udm662.1.2 bus2=p3udm659.1.2 switch=n enabled=y phases=2 Linecode=1P_UG_AL_1/0_Brenau_0_416_0_2_2_2_2

New Line.l(r:p3udm662-p3udt224lv) Units=km Length=0.0100001 bus1=p3udt224lv.1.2 bus2=p3udm662.1.2 switch=n enabled=y phases=2 Linecode=1P_UG_AL_4/0_Sweetbriar_0_416_0_2_2_2_2

New Line.l(r:p3udm663-p3ulv371) Units=km Length=0.0121308 bus1=p3udm663.1.2 bus2=p3ulv371.1.2 switch=n enabled=y phases=2 Linecode=1P_UG_AL_1/0_Brenau_0_416_0_2_2_2_2

New Line.l(r:p3udm663-p3udt225lv) Units=km Length=0.084496 bus1=p3udt225lv.1.2 bus2=p3udm663.1.2 switch=n enabled=y phases=2 Linecode=1P_UG_AL_1/0_Brenau_0_416_0_2_2_2_2

New Line.l(r:p3udm664-p3ulv34793) Units=km Length=0.0151567 bus1=p3udm664.1.2 bus2=p3ulv34793.1.2 switch=n enabled=y phases=2 Linecode=1P_UG_AL_1/0_Brenau_0_416_0_2_2_2_2

New Line.l(r:p3udm665-p3ulv51751) Units=km Length=0.016577400000000003 bus1=p3udm665.1.2 bus2=p3ulv51751.1.2 switch=n enabled=y phases=2 Linecode=1P_UG_AL_1/0_Brenau_0_416_0_2_2_2_2

New Line.l(r:p3udm664-p3udm665) Units=km Length=0.006837030000000001 bus1=p3udm664.1.2 bus2=p3udm665.1.2 switch=n enabled=y phases=2 Linecode=1P_UG_AL_1/0_Brenau_0_416_0_2_2_2_2

New Line.l(r:p3udm664-p3udt225lv) Units=km Length=0.00683381 bus1=p3udt225lv.1.2 bus2=p3udm664.1.2 switch=n enabled=y phases=2 Linecode=1P_UG_AL_4/0_Sweetbriar_0_416_0_2_2_2_2

New Line.l(r:p3udt229lv-p3ulv375) Units=km Length=0.0164802 bus1=p3udt229lv.1.2 bus2=p3ulv375.1.2 switch=n enabled=y phases=2 Linecode=1P_UG_AL_1/0_Brenau_0_416_0_2_2_2_2

New Line.l(r:p3udt229lv-p3ulv19166) Units=km Length=0.0201285 bus1=p3udt229lv.1.2 bus2=p3ulv19166.1.2 switch=n enabled=y phases=2 Linecode=1P_UG_AL_1/0_Brenau_0_416_0_2_2_2_2

New Line.l(r:p3udm678-p3ulv6688) Units=km Length=0.0194552 bus1=p3udm678.1.2 bus2=p3ulv6688.1.2 switch=n enabled=y phases=2 Linecode=1P_UG_AL_1/0_Brenau_0_416_0_2_2_2_2

New Line.l(r:p3udm677-p3ulv1919) Units=km Length=0.018349600000000004 bus1=p3udm677.1.2 bus2=p3ulv1919.1.2 switch=n enabled=y phases=2 Linecode=1P_UG_AL_1/0_Brenau_0_416_0_2_2_2_2

New Line.l(r:p3udm677-p3udm678) Units=km Length=0.0186221 bus1=p3udm678.1.2 bus2=p3udm677.1.2 switch=n enabled=y phases=2 Linecode=1P_UG_AL_1/0_Brenau_0_416_0_2_2_2_2

New Line.l(r:p3udm678-p3udt229lv) Units=km Length=0.00930978 bus1=p3udt229lv.1.2 bus2=p3udm678.1.2 switch=n enabled=y phases=2 Linecode=1P_UG_AL_4/0_Sweetbriar_0_416_0_2_2_2_2

New Line.l(r:p3udm680-p3ulv37828) Units=km Length=0.0176461 bus1=p3udm680.1.2 bus2=p3ulv37828.1.2 switch=n enabled=y phases=2 Linecode=1P_UG_AL_1/0_Brenau_0_416_0_2_2_2_2

New Line.l(r:p3udm680-p3udt229lv) Units=km Length=0.0188645 bus1=p3udt229lv.1.2 bus2=p3udm680.1.2 switch=n enabled=y phases=2 Linecode=1P_UG_AL_1/0_Brenau_0_416_0_2_2_2_2

New Line.l(r:p3udm681-p3ulv376) Units=km Length=0.0167245 bus1=p3udm681.1.2 bus2=p3ulv376.1.2 switch=n enabled=y phases=2 Linecode=1P_UG_AL_1/0_Brenau_0_416_0_2_2_2_2

New Line.l(r:p3udm681-p3udt230lv) Units=km Length=0.0375305 bus1=p3udt230lv.1.2 bus2=p3udm681.1.2 switch=n enabled=y phases=2 Linecode=1P_UG_AL_1/0_Brenau_0_416_0_2_2_2_2

New Line.l(r:p3udm682-p3ulv61729) Units=km Length=0.0174363 bus1=p3udm682.1.2 bus2=p3ulv61729.1.2 switch=n enabled=y phases=2 Linecode=1P_UG_AL_1/0_Brenau_0_416_0_2_2_2_2

New Line.l(r:p3udm683-p3ulv77071) Units=km Length=0.018609 bus1=p3udm683.1.2 bus2=p3ulv77071.1.2 switch=n enabled=y phases=2 Linecode=1P_UG_AL_1/0_Brenau_0_416_0_2_2_2_2

New Line.l(r:p3udm682-p3udm683) Units=km Length=0.00921829 bus1=p3udm682.1.2 bus2=p3udm683.1.2 switch=n enabled=y phases=2 Linecode=1P_UG_AL_1/0_Brenau_0_416_0_2_2_2_2

New Line.l(r:p3udm682-p3udt230lv) Units=km Length=0.00920976 bus1=p3udt230lv.1.2 bus2=p3udm682.1.2 switch=n enabled=y phases=2 Linecode=1P_UG_AL_4/0_Sweetbriar_0_416_0_2_2_2_2

New Line.l(r:p3udt231lv-p3ulv21490) Units=km Length=0.0169327 bus1=p3udt231lv.1.2 bus2=p3ulv21490.1.2 switch=n enabled=y phases=2 Linecode=1P_UG_AL_1/0_Brenau_0_416_0_2_2_2_2

New Line.l(r:p3udm684-p3ulv377) Units=km Length=0.0202381 bus1=p3udm684.1.2 bus2=p3ulv377.1.2 switch=n enabled=y phases=2 Linecode=1P_UG_AL_1/0_Brenau_0_416_0_2_2_2_2

New Line.l(r:p3udm684-p3udt231lv) Units=km Length=0.00975921 bus1=p3udt231lv.1.2 bus2=p3udm684.1.2 switch=n enabled=y phases=2 Linecode=1P_UG_AL_1/0_Brenau_0_416_0_2_2_2_2

New Line.l(r:p3udm686-p3ulv34802) Units=km Length=0.0191848 bus1=p3udm686.1.2 bus2=p3ulv34802.1.2 switch=n enabled=y phases=2 Linecode=1P_UG_AL_1/0_Brenau_0_416_0_2_2_2_2

New Line.l(r:p3udm686-p3udt231lv) Units=km Length=0.0195202 bus1=p3udt231lv.1.2 bus2=p3udm686.1.2 switch=n enabled=y phases=2 Linecode=1P_UG_AL_1/0_Brenau_0_416_0_2_2_2_2

New Line.l(r:p3udt898lv-p3ulv74709) Units=km Length=0.0132001 bus1=p3udt898lv.1.2 bus2=p3ulv74709.1.2 switch=n enabled=y phases=2 Linecode=1P_UG_AL_1/0_Brenau_0_416_0_2_2_2_2

New Line.l(r:p3udm3069-p3ulv1057) Units=km Length=0.014596500000000002 bus1=p3udm3069.1.2 bus2=p3ulv1057.1.2 switch=n enabled=y phases=2 Linecode=1P_UG_AL_1/0_Brenau_0_416_0_2_2_2_2

New Line.l(r:p3udm3069-p3ulv33934) Units=km Length=0.0141146 bus1=p3udm3069.1.2 bus2=p3ulv33934.1.2 switch=n enabled=y phases=2 Linecode=1P_UG_AL_1/0_Brenau_0_416_0_2_2_2_2

New Line.l(r:p3udm3069-p3udt898lv) Units=km Length=0.015087200000000002 bus1=p3udt898lv.1.2 bus2=p3udm3069.1.2 switch=n enabled=y phases=2 Linecode=1P_UG_AL_4/0_Sweetbriar_0_416_0_2_2_2_2

New Line.l(r:p3udm3070-p3ulv14444) Units=km Length=0.0212561 bus1=p3udm3070.1.2 bus2=p3ulv14444.1.2 switch=n enabled=y phases=2 Linecode=1P_UG_AL_1/0_Brenau_0_416_0_2_2_2_2

New Line.l(r:p3udm3070-p3ulv29265) Units=km Length=0.0168694 bus1=p3udm3070.1.2 bus2=p3ulv29265.1.2 switch=n enabled=y phases=2 Linecode=1P_UG_AL_1/0_Brenau_0_416_0_2_2_2_2

New Line.l(r:p3udm3070-p3udt898lv) Units=km Length=0.023533 bus1=p3udt898lv.1.2 bus2=p3udm3070.1.2 switch=n enabled=y phases=2 Linecode=1P_UG_AL_4/0_Sweetbriar_0_416_0_2_2_2_2

New Line.l(r:p3udm3078-p3ulv1060) Units=km Length=0.0171586 bus1=p3udm3078.1.2 bus2=p3ulv1060.1.2 switch=n enabled=y phases=2 Linecode=1P_UG_AL_1/0_Brenau_0_416_0_2_2_2_2

New Line.l(r:p3udm3078-p3udt901lv) Units=km Length=0.0175464 bus1=p3udt901lv.1.2 bus2=p3udm3078.1.2 switch=n enabled=y phases=2 Linecode=1P_UG_AL_1/0_Brenau_0_416_0_2_2_2_2

New Line.l(r:p3udm3079-p3ulv48650) Units=km Length=0.0125639 bus1=p3udm3079.1.2 bus2=p3ulv48650.1.2 switch=n enabled=y phases=2 Linecode=1P_UG_AL_1/0_Brenau_0_416_0_2_2_2_2

New Line.l(r:p3udm3079-p3udt901lv) Units=km Length=0.0151744 bus1=p3udt901lv.1.2 bus2=p3udm3079.1.2 switch=n enabled=y phases=2 Linecode=1P_UG_AL_1/0_Brenau_0_416_0_2_2_2_2

New Line.l(r:p3udm3100-p3ulv1068) Units=km Length=0.0180235 bus1=p3udm3100.1.2 bus2=p3ulv1068.1.2 switch=n enabled=y phases=2 Linecode=1P_OH_AL_2/0_Rucina_0_416_0_2_2_2_2

New Line.l(r:p3udm3100-p3udt909lv) Units=km Length=0.0139787 bus1=p3udt909lv.1.2 bus2=p3udm3100.1.2 switch=n enabled=y phases=2 Linecode=1P_OH_AL_2/0_Rucina_0_416_0_2_2_2_2

New Line.l(r:p3udm3101-p3ulv71672) Units=km Length=0.0275916 bus1=p3udm3101.1.2 bus2=p3ulv71672.1.2 switch=n enabled=y phases=2 Linecode=1P_OH_AL_4/0_Zuzara_0_416_0_2_2_2_2

New Line.l(r:p3udm3101-p3udt909lv) Units=km Length=0.0139688 bus1=p3udt909lv.1.2 bus2=p3udm3101.1.2 switch=n enabled=y phases=2 Linecode=1P_OH_AL_2/0_Rucina_0_416_0_2_2_2_2

New Line.l(r:p3udm3111-p3ulv1073) Units=km Length=0.0145121 bus1=p3udm3111.1.2 bus2=p3ulv1073.1.2 switch=n enabled=y phases=2 Linecode=1P_OH_AL_2/0_Rucina_0_416_0_2_2_2_2

New Line.l(r:p3udm3111-p3udt913lv) Units=km Length=0.0205342 bus1=p3udt913lv.1.2 bus2=p3udm3111.1.2 switch=n enabled=y phases=2 Linecode=1P_OH_AL_2/0_Rucina_0_416_0_2_2_2_2

New Line.l(r:p3udm3112-p3ulv9004) Units=km Length=0.0198503 bus1=p3udm3112.1.2 bus2=p3ulv9004.1.2 switch=n enabled=y phases=2 Linecode=1P_UG_AL_4/0_Sweetbriar_0_416_0_2_2_2_2

New Line.l(r:p3udm3112-p3udt913lv) Units=km Length=0.019705900000000002 bus1=p3udt913lv.1.2 bus2=p3udm3112.1.2 switch=n enabled=y phases=2 Linecode=1P_OH_AL_2/0_Rucina_0_416_0_2_2_2_2

New Line.l(r:p3udt952lv-p3ulv1115) Units=km Length=0.0241339 bus1=p3udt952lv.1.2 bus2=p3ulv1115.1.2 switch=n enabled=y phases=2 Linecode=1P_OH_AL_2/0_Rucina_0_416_0_2_2_2_2

New Line.l(r:p3udt954lv-p3ulv37036) Units=km Length=0.0186008 bus1=p3udt954lv.1.2 bus2=p3ulv37036.1.2 switch=n enabled=y phases=2 Linecode=1P_UG_AL_1/0_Brenau_0_416_0_2_2_2_2

New Line.l(r:p3udm3253-p3ulv1117) Units=km Length=0.0205075 bus1=p3udm3253.1.2 bus2=p3ulv1117.1.2 switch=n enabled=y phases=2 Linecode=1P_UG_AL_1/0_Brenau_0_416_0_2_2_2_2

New Line.l(r:p3udm3253-p3ulv39377) Units=km Length=0.018547 bus1=p3udm3253.1.2 bus2=p3ulv39377.1.2 switch=n enabled=y phases=2 Linecode=1P_UG_AL_1/0_Brenau_0_416_0_2_2_2_2

New Line.l(r:p3udm3253-p3udt954lv) Units=km Length=0.0185066 bus1=p3udt954lv.1.2 bus2=p3udm3253.1.2 switch=n enabled=y phases=2 Linecode=1P_UG_AL_4/0_Sweetbriar_0_416_0_2_2_2_2

New Line.l(r:p3udm3258-p3ulv79386) Units=km Length=0.0194683 bus1=p3udm3258.1.2 bus2=p3ulv79386.1.2 switch=n enabled=y phases=2 Linecode=1P_UG_AL_1/0_Brenau_0_416_0_2_2_2_2

New Line.l(r:p3udm3256-p3ulv45677) Units=km Length=0.0183993 bus1=p3udm3256.1.2 bus2=p3ulv45677.1.2 switch=n enabled=y phases=2 Linecode=1P_UG_AL_1/0_Brenau_0_416_0_2_2_2_2

New Line.l(r:p3udm3256-p3ulv54055) Units=km Length=0.0197802 bus1=p3udm3256.1.2 bus2=p3ulv54055.1.2 switch=n enabled=y phases=2 Linecode=1P_UG_AL_1/0_Brenau_0_416_0_2_2_2_2

New Line.l(r:p3udm3256-p3udm3258) Units=km Length=0.00925746 bus1=p3udm3258.1.2 bus2=p3udm3256.1.2 switch=n enabled=y phases=2 Linecode=1P_UG_AL_4/0_Sweetbriar_0_416_0_2_2_2_2

New Line.l(r:p3udm3258-p3udt954lv) Units=km Length=0.00924918 bus1=p3udt954lv.1.2 bus2=p3udm3258.1.2 switch=n enabled=y phases=2 Linecode=1P_UG_AL_4/0_Sweetbriar_0_416_0_2_2_2_2

New Line.l(r:p3udt956lv-p3ulv37037) Units=km Length=0.0169588 bus1=p3udt956lv.1.2 bus2=p3ulv37037.1.2 switch=n enabled=y phases=2 Linecode=1P_UG_AL_1/0_Brenau_0_416_0_2_2_2_2

New Line.l(r:p3udm3262-p3ulv1119) Units=km Length=0.0161821 bus1=p3udm3262.1.2 bus2=p3ulv1119.1.2 switch=n enabled=y phases=2 Linecode=1P_UG_AL_1/0_Brenau_0_416_0_2_2_2_2

New Line.l(r:p3udm3262-p3udt956lv) Units=km Length=0.00828476 bus1=p3udt956lv.1.2 bus2=p3udm3262.1.2 switch=n enabled=y phases=2 Linecode=1P_UG_AL_1/0_Brenau_0_416_0_2_2_2_2

New Line.l(r:p3udm3264-p3ulv79382) Units=km Length=0.0171772 bus1=p3udm3264.1.2 bus2=p3ulv79382.1.2 switch=n enabled=y phases=2 Linecode=1P_UG_AL_1/0_Brenau_0_416_0_2_2_2_2

New Line.l(r:p3udm3264-p3udt956lv) Units=km Length=0.00828554 bus1=p3udt956lv.1.2 bus2=p3udm3264.1.2 switch=n enabled=y phases=2 Linecode=1P_UG_AL_1/0_Brenau_0_416_0_2_2_2_2

New Line.l(r:p3udt957lv-p3ulv19155) Units=km Length=0.0168528 bus1=p3udt957lv.1.2 bus2=p3ulv19155.1.2 switch=n enabled=y phases=2 Linecode=1P_UG_AL_1/0_Brenau_0_416_0_2_2_2_2

New Line.l(r:p3udt957lv-p3ulv73235) Units=km Length=0.0140217 bus1=p3udt957lv.1.2 bus2=p3ulv73235.1.2 switch=n enabled=y phases=2 Linecode=1P_UG_AL_1/0_Brenau_0_416_0_2_2_2_2

New Line.l(r:p3udm3265-p3ulv1120) Units=km Length=0.020856 bus1=p3udm3265.1.2 bus2=p3ulv1120.1.2 switch=n enabled=y phases=2 Linecode=1P_UG_AL_1/0_Brenau_0_416_0_2_2_2_2

New Line.l(r:p3udm3265-p3udt957lv) Units=km Length=0.00909189 bus1=p3udt957lv.1.2 bus2=p3udm3265.1.2 switch=n enabled=y phases=2 Linecode=1P_UG_AL_1/0_Brenau_0_416_0_2_2_2_2

New Line.l(r:p3udt958lv-p3ulv1121) Units=km Length=0.0193296 bus1=p3udt958lv.1.2 bus2=p3ulv1121.1.2 switch=n enabled=y phases=2 Linecode=1P_UG_AL_1/0_Brenau_0_416_0_2_2_2_2

New Line.l(r:p3udt958lv-p3ulv27062) Units=km Length=0.00879492 bus1=p3udt958lv.1.2 bus2=p3ulv27062.1.2 switch=n enabled=y phases=2 Linecode=1P_UG_AL_1/0_Brenau_0_416_0_2_2_2_2

New Line.l(r:p3udm3270-p3ulv59431) Units=km Length=0.0119195 bus1=p3udm3270.1.2 bus2=p3ulv59431.1.2 switch=n enabled=y phases=2 Linecode=1P_UG_AL_1/0_Brenau_0_416_0_2_2_2_2

New Line.l(r:p3udm3270-p3udt958lv) Units=km Length=0.0632257 bus1=p3udt958lv.1.2 bus2=p3udm3270.1.2 switch=n enabled=y phases=2 Linecode=1P_UG_AL_1/0_Brenau_0_416_0_2_2_2_2

New Line.l(r:p3udm3271-p3ulv1122) Units=km Length=0.0246545 bus1=p3udm3271.1.2 bus2=p3ulv1122.1.2 switch=n enabled=y phases=2 Linecode=1P_UG_AL_1/0_Brenau_0_416_0_2_2_2_2

New Line.l(r:p3udm3271-p3ulv17635) Units=km Length=0.0193933 bus1=p3udm3271.1.2 bus2=p3ulv17635.1.2 switch=n enabled=y phases=2 Linecode=1P_UG_AL_1/0_Brenau_0_416_0_2_2_2_2

New Line.l(r:p3udm3271-p3udt959lv) Units=km Length=0.0057621 bus1=p3udt959lv.1.2 bus2=p3udm3271.1.2 switch=n enabled=y phases=2 Linecode=1P_UG_AL_4/0_Sweetbriar_0_416_0_2_2_2_2

New Line.l(r:p3udm3273-p3ulv78616) Units=km Length=0.0286535 bus1=p3udm3273.1.2 bus2=p3ulv78616.1.2 switch=n enabled=y phases=2 Linecode=1P_UG_AL_1/0_Brenau_0_416_0_2_2_2_2

New Line.l(r:p3udm3273-p3udt959lv) Units=km Length=0.0140592 bus1=p3udt959lv.1.2 bus2=p3udm3273.1.2 switch=n enabled=y phases=2 Linecode=1P_UG_AL_1/0_Brenau_0_416_0_2_2_2_2

New Line.l(r:p3udt960lv-p3ulv1123) Units=km Length=0.0172346 bus1=p3udt960lv.1.2 bus2=p3ulv1123.1.2 switch=n enabled=y phases=2 Linecode=1P_UG_AL_4/0_Sweetbriar_0_416_0_2_2_2_2

New Line.l(r:p3udt960lv-p3ulv5093) Units=km Length=0.0245636 bus1=p3udt960lv.1.2 bus2=p3ulv5093.1.2 switch=n enabled=y phases=2 Linecode=1P_UG_AL_1/0_Brenau_0_416_0_2_2_2_2

New Line.l(r:p3udt960lv-p3ulv20684) Units=km Length=0.027759100000000002 bus1=p3udt960lv.1.2 bus2=p3ulv20684.1.2 switch=n enabled=y phases=2 Linecode=1P_UG_AL_1/0_Brenau_0_416_0_2_2_2_2

New Line.l(r:p3udm3276-p3ulv6682) Units=km Length=0.0181327 bus1=p3udm3276.1.2 bus2=p3ulv6682.1.2 switch=n enabled=y phases=2 Linecode=1P_UG_AL_1/0_Brenau_0_416_0_2_2_2_2

New Line.l(r:p3udm3276-p3udt960lv) Units=km Length=0.0549237 bus1=p3udt960lv.1.2 bus2=p3udm3276.1.2 switch=n enabled=y phases=2 Linecode=1P_UG_AL_1/0_Brenau_0_416_0_2_2_2_2

New Line.l(r:p3udt961lv-p3ulv1124) Units=km Length=0.0129813 bus1=p3udt961lv.1.2 bus2=p3ulv1124.1.2 switch=n enabled=y phases=2 Linecode=1P_UG_AL_4/0_Sweetbriar_0_416_0_2_2_2_2

New Line.l(r:p3udt961lv-p3ulv61721) Units=km Length=0.0230968 bus1=p3udt961lv.1.2 bus2=p3ulv61721.1.2 switch=n enabled=y phases=2 Linecode=1P_UG_AL_1/0_Brenau_0_416_0_2_2_2_2

New Line.l(r:p3udt962lv-p3ulv19158) Units=km Length=0.024225900000000005 bus1=p3udt962lv.1.2 bus2=p3ulv19158.1.2 switch=n enabled=y phases=2 Linecode=1P_UG_AL_1/0_Brenau_0_416_0_2_2_2_2

New Line.l(r:p3udm3280-p3ulv1125) Units=km Length=0.030508 bus1=p3udm3280.1.2 bus2=p3ulv1125.1.2 switch=n enabled=y phases=2 Linecode=1P_UG_AL_1/0_Brenau_0_416_0_2_2_2_2

New Line.l(r:p3udm3283-p3ulv23050) Units=km Length=0.020117000000000003 bus1=p3udm3283.1.2 bus2=p3ulv23050.1.2 switch=n enabled=y phases=2 Linecode=1P_UG_AL_1/0_Brenau_0_416_0_2_2_2_2

New Line.l(r:p3udm3280-p3udm3283) Units=km Length=0.0295046 bus1=p3udm3280.1.2 bus2=p3udm3283.1.2 switch=n enabled=y phases=2 Linecode=1P_UG_AL_1/0_Brenau_0_416_0_2_2_2_2

New Line.l(r:p3udm3280-p3udt962lv) Units=km Length=0.00984215 bus1=p3udt962lv.1.2 bus2=p3udm3280.1.2 switch=n enabled=y phases=2 Linecode=1P_UG_AL_4/0_Sweetbriar_0_416_0_2_2_2_2

New Line.l(r:p3udm3281-p3ulv1915) Units=km Length=0.0224107 bus1=p3udm3281.1.2 bus2=p3ulv1915.1.2 switch=n enabled=y phases=2 Linecode=1P_UG_AL_1/0_Brenau_0_416_0_2_2_2_2

New Line.l(r:p3udm3281-p3udt962lv) Units=km Length=0.039339 bus1=p3udt962lv.1.2 bus2=p3udm3281.1.2 switch=n enabled=y phases=2 Linecode=1P_UG_AL_1/0_Brenau_0_416_0_2_2_2_2

New Line.l(r:p3udm3284-p3ulv1126) Units=km Length=0.020810400000000003 bus1=p3udm3284.1.2 bus2=p3ulv1126.1.2 switch=n enabled=y phases=2 Linecode=1P_UG_AL_1/0_Brenau_0_416_0_2_2_2_2

New Line.l(r:p3udm3284-p3ulv9797) Units=km Length=0.0107861 bus1=p3udm3284.1.2 bus2=p3ulv9797.1.2 switch=n enabled=y phases=2 Linecode=1P_UG_AL_4/0_Sweetbriar_0_416_0_2_2_2_2

New Line.l(r:p3udm3284-p3udt963lv) Units=km Length=0.012156 bus1=p3udt963lv.1.2 bus2=p3udm3284.1.2 switch=n enabled=y phases=2 Linecode=1P_UG_AL_4/0_Sweetbriar_0_416_0_2_2_2_2

New Line.l(r:p3udm3287-p3ulv46489) Units=km Length=0.010835200000000001 bus1=p3udm3287.1.2 bus2=p3ulv46489.1.2 switch=n enabled=y phases=2 Linecode=1P_UG_AL_1/0_Brenau_0_416_0_2_2_2_2

New Line.l(r:p3udm3286-p3ulv44069) Units=km Length=0.0195586 bus1=p3udm3286.1.2 bus2=p3ulv44069.1.2 switch=n enabled=y phases=2 Linecode=1P_UG_AL_1/0_Brenau_0_416_0_2_2_2_2

New Line.l(r:p3udm3286-p3udm3287) Units=km Length=0.009853730000000002 bus1=p3udm3287.1.2 bus2=p3udm3286.1.2 switch=n enabled=y phases=2 Linecode=1P_UG_AL_1/0_Brenau_0_416_0_2_2_2_2

New Line.l(r:p3udm3287-p3udt963lv) Units=km Length=0.00737526 bus1=p3udt963lv.1.2 bus2=p3udm3287.1.2 switch=n enabled=y phases=2 Linecode=1P_UG_AL_4/0_Sweetbriar_0_416_0_2_2_2_2

New Line.l(r:p3udt967lv-p3ulv1130) Units=km Length=0.014147600000000001 bus1=p3udt967lv.1.2 bus2=p3ulv1130.1.2 switch=n enabled=y phases=2 Linecode=1P_UG_AL_1/0_Brenau_0_416_0_2_2_2_2

New Line.l(r:p3udt967lv-p3ulv61725) Units=km Length=0.0212004 bus1=p3udt967lv.1.2 bus2=p3ulv61725.1.2 switch=n enabled=y phases=2 Linecode=1P_UG_AL_1/0_Brenau_0_416_0_2_2_2_2

New Line.l(r:p3udm3299-p3ulv43290) Units=km Length=0.026622300000000005 bus1=p3udm3299.1.2 bus2=p3ulv43290.1.2 switch=n enabled=y phases=2 Linecode=1P_UG_AL_1/0_Brenau_0_416_0_2_2_2_2

New Line.l(r:p3udm3299-p3ulv57928) Units=km Length=0.0129206 bus1=p3udm3299.1.2 bus2=p3ulv57928.1.2 switch=n enabled=y phases=2 Linecode=1P_UG_AL_1/0_Brenau_0_416_0_2_2_2_2

New Line.l(r:p3udm3299-p3udt967lv) Units=km Length=0.019403800000000002 bus1=p3udt967lv.1.2 bus2=p3udm3299.1.2 switch=n enabled=y phases=2 Linecode=1P_UG_AL_4/0_Sweetbriar_0_416_0_2_2_2_2

New Line.l(r:p3udm3302-p3ulv77823) Units=km Length=0.011795 bus1=p3udm3302.1.2 bus2=p3ulv77823.1.2 switch=n enabled=y phases=2 Linecode=1P_UG_AL_2/0_Converse_0_416_0_2_2_2_2

New Line.l(r:p3udm3302-p3udt967lv) Units=km Length=0.0291047 bus1=p3udt967lv.1.2 bus2=p3udm3302.1.2 switch=n enabled=y phases=2 Linecode=1P_UG_AL_2/0_Converse_0_416_0_2_2_2_2

New Line.l(r:p3udt968lv-p3ulv1131) Units=km Length=0.0148259 bus1=p3udt968lv.1.2 bus2=p3ulv1131.1.2 switch=n enabled=y phases=2 Linecode=1P_UG_AL_1/0_Brenau_0_416_0_2_2_2_2

New Line.l(r:p3udt968lv-p3ulv46496) Units=km Length=0.015410200000000002 bus1=p3udt968lv.1.2 bus2=p3ulv46496.1.2 switch=n enabled=y phases=2 Linecode=1P_UG_AL_1/0_Brenau_0_416_0_2_2_2_2

New Line.l(r:p3udt968lv-p3ulv57930) Units=km Length=0.0160892 bus1=p3udt968lv.1.2 bus2=p3ulv57930.1.2 switch=n enabled=y phases=2 Linecode=1P_UG_AL_1/0_Brenau_0_416_0_2_2_2_2

New Line.l(r:p3udm3305-p3ulv19165) Units=km Length=0.0193843 bus1=p3udm3305.1.2 bus2=p3ulv19165.1.2 switch=n enabled=y phases=2 Linecode=1P_UG_AL_1/0_Brenau_0_416_0_2_2_2_2

New Line.l(r:p3udm3304-p3ulv8292) Units=km Length=0.0164784 bus1=p3udm3304.1.2 bus2=p3ulv8292.1.2 switch=n enabled=y phases=2 Linecode=1P_UG_AL_1/0_Brenau_0_416_0_2_2_2_2

New Line.l(r:p3udm3304-p3udm3305) Units=km Length=0.00986755 bus1=p3udm3305.1.2 bus2=p3udm3304.1.2 switch=n enabled=y phases=2 Linecode=1P_UG_AL_1/0_Brenau_0_416_0_2_2_2_2

New Line.l(r:p3udm3305-p3udt968lv) Units=km Length=0.00985877 bus1=p3udt968lv.1.2 bus2=p3udm3305.1.2 switch=n enabled=y phases=2 Linecode=1P_UG_AL_4/0_Sweetbriar_0_416_0_2_2_2_2

New Line.l(r:p3udm3308-p3ulv1132) Units=km Length=0.020725100000000003 bus1=p3udm3308.1.2 bus2=p3ulv1132.1.2 switch=n enabled=y phases=2 Linecode=1P_UG_AL_1/0_Brenau_0_416_0_2_2_2_2

New Line.l(r:p3udm3308-p3udt969lv) Units=km Length=0.00940613 bus1=p3udt969lv.1.2 bus2=p3udm3308.1.2 switch=n enabled=y phases=2 Linecode=1P_UG_AL_1/0_Brenau_0_416_0_2_2_2_2

New Line.l(r:p3udm3309-p3ulv19937) Units=km Length=0.013589 bus1=p3udm3309.1.2 bus2=p3ulv19937.1.2 switch=n enabled=y phases=2 Linecode=1P_UG_AL_1/0_Brenau_0_416_0_2_2_2_2

New Line.l(r:p3udm3309-p3ulv36340) Units=km Length=0.0233928 bus1=p3udm3309.1.2 bus2=p3ulv36340.1.2 switch=n enabled=y phases=2 Linecode=1P_UG_AL_1/0_Brenau_0_416_0_2_2_2_2

New Line.l(r:p3udm3309-p3udt969lv) Units=km Length=0.00941515 bus1=p3udt969lv.1.2 bus2=p3udm3309.1.2 switch=n enabled=y phases=2 Linecode=1P_UG_AL_4/0_Sweetbriar_0_416_0_2_2_2_2

New Line.l(r:p3udm3311-p3ulv1133) Units=km Length=0.0175003 bus1=p3udm3311.1.2 bus2=p3ulv1133.1.2 switch=n enabled=y phases=2 Linecode=1P_UG_AL_4/0_Sweetbriar_0_416_0_2_2_2_2

New Line.l(r:p3udm3312-p3ulv58692) Units=km Length=0.0135525 bus1=p3udm3312.1.2 bus2=p3ulv58692.1.2 switch=n enabled=y phases=2 Linecode=1P_UG_AL_1/0_Brenau_0_416_0_2_2_2_2

New Line.l(r:p3udm3314-p3ulv79392) Units=km Length=0.0192226 bus1=p3udm3314.1.2 bus2=p3ulv79392.1.2 switch=n enabled=y phases=2 Linecode=1P_UG_AL_1/0_Brenau_0_416_0_2_2_2_2

New Line.l(r:p3udm3312-p3udm3314) Units=km Length=0.00985431 bus1=p3udm3312.1.2 bus2=p3udm3314.1.2 switch=n enabled=y phases=2 Linecode=1P_UG_AL_1/0_Brenau_0_416_0_2_2_2_2

New Line.l(r:p3udm3311-p3udm3312) Units=km Length=0.00985431 bus1=p3udm3311.1.2 bus2=p3udm3312.1.2 switch=n enabled=y phases=2 Linecode=1P_UG_AL_4/0_Sweetbriar_0_416_0_2_2_2_2

New Line.l(r:p3udm3311-p3udt970lv) Units=km Length=0.00985431 bus1=p3udt970lv.1.2 bus2=p3udm3311.1.2 switch=n enabled=y phases=2 Linecode=1P_UG_AL_4/0_Sweetbriar_0_416_0_2_2_2_2

New Line.l(r:p3udm3313-p3ulv76295) Units=km Length=0.0163739 bus1=p3udm3313.1.2 bus2=p3ulv76295.1.2 switch=n enabled=y phases=2 Linecode=1P_UG_AL_1/0_Brenau_0_416_0_2_2_2_2

New Line.l(r:p3udm3313-p3udt970lv) Units=km Length=0.0689618 bus1=p3udt970lv.1.2 bus2=p3udm3313.1.2 switch=n enabled=y phases=2 Linecode=1P_UG_AL_1/0_Brenau_0_416_0_2_2_2_2

New Line.l(r:p3udt971lv-p3ulv73252) Units=km Length=0.0158614 bus1=p3udt971lv.1.2 bus2=p3ulv73252.1.2 switch=n enabled=y phases=2 Linecode=1P_UG_AL_1/0_Brenau_0_416_0_2_2_2_2

New Line.l(r:p3udm3316-p3ulv49498) Units=km Length=0.0152381 bus1=p3udm3316.1.2 bus2=p3ulv49498.1.2 switch=n enabled=y phases=2 Linecode=1P_UG_AL_1/0_Brenau_0_416_0_2_2_2_2

New Line.l(r:p3udm3320-p3ulv79384) Units=km Length=0.0222772 bus1=p3udm3320.1.2 bus2=p3ulv79384.1.2 switch=n enabled=y phases=2 Linecode=1P_UG_AL_1/0_Brenau_0_416_0_2_2_2_2

New Line.l(r:p3udm3316-p3udm3320) Units=km Length=0.0193076 bus1=p3udm3316.1.2 bus2=p3udm3320.1.2 switch=n enabled=y phases=2 Linecode=1P_UG_AL_1/0_Brenau_0_416_0_2_2_2_2

New Line.l(r:p3udm3316-p3udt971lv) Units=km Length=0.00964508 bus1=p3udt971lv.1.2 bus2=p3udm3316.1.2 switch=n enabled=y phases=2 Linecode=1P_UG_AL_4/0_Sweetbriar_0_416_0_2_2_2_2

New Line.l(r:p3udm3319-p3ulv78611) Units=km Length=0.0170684 bus1=p3udm3319.1.2 bus2=p3ulv78611.1.2 switch=n enabled=y phases=2 Linecode=1P_UG_AL_1/0_Brenau_0_416_0_2_2_2_2

New Line.l(r:p3udm3315-p3ulv1134) Units=km Length=0.0164257 bus1=p3udm3315.1.2 bus2=p3ulv1134.1.2 switch=n enabled=y phases=2 Linecode=1P_UG_AL_1/0_Brenau_0_416_0_2_2_2_2

New Line.l(r:p3udm3315-p3ulv62479) Units=km Length=0.0171462 bus1=p3udm3315.1.2 bus2=p3ulv62479.1.2 switch=n enabled=y phases=2 Linecode=1P_UG_AL_1/0_Brenau_0_416_0_2_2_2_2

New Line.l(r:p3udm3315-p3udm3319) Units=km Length=0.00977943 bus1=p3udm3319.1.2 bus2=p3udm3315.1.2 switch=n enabled=y phases=2 Linecode=1P_UG_AL_4/0_Sweetbriar_0_416_0_2_2_2_2

New Line.l(r:p3udm3319-p3udt971lv) Units=km Length=0.00978806 bus1=p3udt971lv.1.2 bus2=p3udm3319.1.2 switch=n enabled=y phases=2 Linecode=1P_UG_AL_4/0_Sweetbriar_0_416_0_2_2_2_2

New Line.l(r:p3udt1675lv-p3ulv36977) Units=km Length=0.0278062 bus1=p3udt1675lv.1.2 bus2=p3ulv36977.1.2 switch=n enabled=y phases=2 Linecode=1P_UG_AL_1/0_Brenau_0_416_0_2_2_2_2

New Line.l(r:p3udm5774-p3ulv1863) Units=km Length=0.0179867 bus1=p3udm5774.1.2 bus2=p3ulv1863.1.2 switch=n enabled=y phases=2 Linecode=1P_UG_AL_2/0_Converse_0_416_0_2_2_2_2

New Line.l(r:p3udm5774-p3udt1675lv) Units=km Length=0.008780190000000002 bus1=p3udt1675lv.1.2 bus2=p3udm5774.1.2 switch=n enabled=y phases=2 Linecode=1P_UG_AL_2/0_Converse_0_416_0_2_2_2_2

New Line.l(r:p3udm5776-p3ulv47946) Units=km Length=0.012234700000000001 bus1=p3udm5776.1.2 bus2=p3ulv47946.1.2 switch=n enabled=y phases=2 Linecode=1P_UG_AL_1/0_Brenau_0_416_0_2_2_2_2

New Line.l(r:p3udm5776-p3udt1675lv) Units=km Length=0.0263208 bus1=p3udt1675lv.1.2 bus2=p3udm5776.1.2 switch=n enabled=y phases=2 Linecode=1P_UG_AL_1/0_Brenau_0_416_0_2_2_2_2

New Line.l(r:p3udm5926-p3ulv1912) Units=km Length=0.0159866 bus1=p3udm5926.1.2 bus2=p3ulv1912.1.2 switch=n enabled=y phases=2 Linecode=1P_UG_AL_1/0_Brenau_0_416_0_2_2_2_2

New Line.l(r:p3udm5928-p3ulv63998) Units=km Length=0.013187100000000002 bus1=p3udm5928.1.2 bus2=p3ulv63998.1.2 switch=n enabled=y phases=2 Linecode=1P_UG_AL_1/0_Brenau_0_416_0_2_2_2_2

New Line.l(r:p3udm5926-p3udm5928) Units=km Length=0.008868850000000001 bus1=p3udm5926.1.2 bus2=p3udm5928.1.2 switch=n enabled=y phases=2 Linecode=1P_UG_AL_1/0_Brenau_0_416_0_2_2_2_2

New Line.l(r:p3udm5926-p3udt1719lv) Units=km Length=0.00887246 bus1=p3udt1719lv.1.2 bus2=p3udm5926.1.2 switch=n enabled=y phases=2 Linecode=1P_UG_AL_4/0_Sweetbriar_0_416_0_2_2_2_2

New Line.l(r:p3udm5927-p3ulv19926) Units=km Length=0.0151488 bus1=p3udm5927.1.2 bus2=p3ulv19926.1.2 switch=n enabled=y phases=2 Linecode=1P_UG_AL_1/0_Brenau_0_416_0_2_2_2_2
