New Load.load_p2ulv6620 conn=wye bus1=p2ulv6620.1.2.3 kV=0.48 Vminpu=0.8 Vmaxpu=1.2 model=1 kW=5.01005 kvar=1.0199525286347437 Phases=3

New Load.load_p2ulv7575 conn=wye bus1=p2ulv7575.1.2.3 kV=0.48 Vminpu=0.8 Vmaxpu=1.2 model=1 kW=5.17005 kvar=1.0498234284108339 Phases=3

