New Line.l(r:p3udt249lv-p3ulv395) Units=km Length=0.0192899 bus1=p3udt249lv.1.2 bus2=p3ulv395.1.2 switch=n enabled=y phases=2 Linecode=1P_UG_AL_1/0_Brenau_0_416_0_2_2_2_2

New Line.l(r:p3udt249lv-p3ulv62501) Units=km Length=0.0139644 bus1=p3udt249lv.1.2 bus2=p3ulv62501.1.2 switch=n enabled=y phases=2 Linecode=1P_UG_AL_1/0_Brenau_0_416_0_2_2_2_2

New Line.l(r:p3udm744-p3ulv21506) Units=km Length=0.0178602 bus1=p3udm744.1.2 bus2=p3ulv21506.1.2 switch=n enabled=y phases=2 Linecode=1P_UG_AL_1/0_Brenau_0_416_0_2_2_2_2

New Line.l(r:p3udm744-p3udt249lv) Units=km Length=0.00938937 bus1=p3udt249lv.1.2 bus2=p3udm744.1.2 switch=n enabled=y phases=2 Linecode=1P_UG_AL_1/0_Brenau_0_416_0_2_2_2_2

New Line.l(r:p3udm756-p3ulv14546) Units=km Length=0.0157252 bus1=p3udm756.1.2 bus2=p3ulv14546.1.2 switch=n enabled=y phases=2 Linecode=1P_UG_AL_1/0_Brenau_0_416_0_2_2_2_2

New Line.l(r:p3udm756-p3udt254lv) Units=km Length=0.0967341 bus1=p3udt254lv.1.2 bus2=p3udm756.1.2 switch=n enabled=y phases=2 Linecode=1P_UG_AL_1/0_Brenau_0_416_0_2_2_2_2

New Line.l(r:p3udm757-p3ulv44943) Units=km Length=0.014715900000000002 bus1=p3udm757.1.2 bus2=p3ulv44943.1.2 switch=n enabled=y phases=2 Linecode=1P_UG_AL_1/0_Brenau_0_416_0_2_2_2_2

New Line.l(r:p3udm757-p3ulv61755) Units=km Length=0.0172762 bus1=p3udm757.1.2 bus2=p3ulv61755.1.2 switch=n enabled=y phases=2 Linecode=1P_UG_AL_1/0_Brenau_0_416_0_2_2_2_2

New Line.l(r:p3udm759-p3ulv64022) Units=km Length=0.0154203 bus1=p3udm759.1.2 bus2=p3ulv64022.1.2 switch=n enabled=y phases=2 Linecode=1P_UG_AL_1/0_Brenau_0_416_0_2_2_2_2

New Line.l(r:p3udm755-p3ulv400) Units=km Length=0.0165091 bus1=p3udm755.1.2 bus2=p3ulv400.1.2 switch=n enabled=y phases=2 Linecode=1P_UG_AL_2/0_Converse_0_416_0_2_2_2_2

New Line.l(r:p3udm755-p3udm759) Units=km Length=0.00965087 bus1=p3udm759.1.2 bus2=p3udm755.1.2 switch=n enabled=y phases=2 Linecode=1P_UG_AL_2/0_Converse_0_416_0_2_2_2_2

New Line.l(r:p3udm757-p3udm759) Units=km Length=0.00965981 bus1=p3udm757.1.2 bus2=p3udm759.1.2 switch=n enabled=y phases=2 Linecode=1P_UG_AL_4/0_Sweetbriar_0_416_0_2_2_2_2

New Line.l(r:p3udm757-p3udt254lv) Units=km Length=0.00965087 bus1=p3udt254lv.1.2 bus2=p3udm757.1.2 switch=n enabled=y phases=2 Linecode=1P_UG_AL_4/0_Sweetbriar_0_416_0_2_2_2_2

New Line.l(r:p3udm3327-p3ulv59439) Units=km Length=0.014584700000000003 bus1=p3udm3327.1.2 bus2=p3ulv59439.1.2 switch=n enabled=y phases=2 Linecode=1P_UG_AL_1/0_Brenau_0_416_0_2_2_2_2

New Line.l(r:p3udm3327-p3ulv72495) Units=km Length=0.0156384 bus1=p3udm3327.1.2 bus2=p3ulv72495.1.2 switch=n enabled=y phases=2 Linecode=1P_UG_AL_1/0_Brenau_0_416_0_2_2_2_2

New Line.l(r:p3udm3325-p3ulv1138) Units=km Length=0.015243000000000001 bus1=p3udm3325.1.2 bus2=p3ulv1138.1.2 switch=n enabled=y phases=2 Linecode=1P_UG_AL_1/0_Brenau_0_416_0_2_2_2_2

New Line.l(r:p3udm3325-p3ulv16915) Units=km Length=0.0153182 bus1=p3udm3325.1.2 bus2=p3ulv16915.1.2 switch=n enabled=y phases=2 Linecode=1P_UG_AL_1/0_Brenau_0_416_0_2_2_2_2

New Line.l(r:p3udm3325-p3udm3327) Units=km Length=0.009634150000000001 bus1=p3udm3327.1.2 bus2=p3udm3325.1.2 switch=n enabled=y phases=2 Linecode=1P_UG_AL_4/0_Sweetbriar_0_416_0_2_2_2_2

New Line.l(r:p3udm3327-p3udt975lv) Units=km Length=0.00964184 bus1=p3udt975lv.1.2 bus2=p3udm3327.1.2 switch=n enabled=y phases=2 Linecode=1P_UG_AL_4/0_Sweetbriar_0_416_0_2_2_2_2

New Line.l(r:p3udm3328-p3ulv60176) Units=km Length=0.0144236 bus1=p3udm3328.1.2 bus2=p3ulv60176.1.2 switch=n enabled=y phases=2 Linecode=1P_UG_AL_1/0_Brenau_0_416_0_2_2_2_2

New Line.l(r:p3udm3328-p3udt975lv) Units=km Length=0.0385303 bus1=p3udt975lv.1.2 bus2=p3udm3328.1.2 switch=n enabled=y phases=2 Linecode=1P_UG_AL_1/0_Brenau_0_416_0_2_2_2_2

New Line.l(r:p3udt983lv-p3ulv1146) Units=km Length=0.0146365 bus1=p3udt983lv.1.2 bus2=p3ulv1146.1.2 switch=n enabled=y phases=2 Linecode=1P_UG_AL_1/0_Brenau_0_416_0_2_2_2_2

New Line.l(r:p3udt983lv-p3ulv42531) Units=km Length=0.0107084 bus1=p3udt983lv.1.2 bus2=p3ulv42531.1.2 switch=n enabled=y phases=2 Linecode=1P_UG_AL_1/0_Brenau_0_416_0_2_2_2_2

New Line.l(r:p3udm3364-p3ulv38609) Units=km Length=0.0170218 bus1=p3udm3364.1.2 bus2=p3ulv38609.1.2 switch=n enabled=y phases=2 Linecode=1P_UG_AL_1/0_Brenau_0_416_0_2_2_2_2

New Line.l(r:p3udm3364-p3udt983lv) Units=km Length=0.0555955 bus1=p3udt983lv.1.2 bus2=p3udm3364.1.2 switch=n enabled=y phases=2 Linecode=1P_UG_AL_1/0_Brenau_0_416_0_2_2_2_2

New Line.l(r:p3udt984lv-p3ulv1147) Units=km Length=0.0210579 bus1=p3udt984lv.1.2 bus2=p3ulv1147.1.2 switch=n enabled=y phases=2 Linecode=1P_UG_AL_1/0_Brenau_0_416_0_2_2_2_2

New Line.l(r:p3udt984lv-p3ulv7497) Units=km Length=0.022552 bus1=p3udt984lv.1.2 bus2=p3ulv7497.1.2 switch=n enabled=y phases=2 Linecode=1P_UG_AL_1/0_Brenau_0_416_0_2_2_2_2

New Line.l(r:p3udt984lv-p3ulv44093) Units=km Length=0.0235143 bus1=p3udt984lv.1.2 bus2=p3ulv44093.1.2 switch=n enabled=y phases=2 Linecode=1P_UG_AL_1/0_Brenau_0_416_0_2_2_2_2

New Line.l(r:p3udt984lv-p3ulv57159) Units=km Length=0.020792400000000003 bus1=p3udt984lv.1.2 bus2=p3ulv57159.1.2 switch=n enabled=y phases=2 Linecode=1P_UG_AL_1/0_Brenau_0_416_0_2_2_2_2

New Line.l(r:p3udt986lv-p3ulv54897) Units=km Length=0.014392 bus1=p3udt986lv.1.2 bus2=p3ulv54897.1.2 switch=n enabled=y phases=2 Linecode=1P_UG_AL_1/0_Brenau_0_416_0_2_2_2_2

New Line.l(r:p3udm3374-p3ulv1149) Units=km Length=0.0164122 bus1=p3udm3374.1.2 bus2=p3ulv1149.1.2 switch=n enabled=y phases=2 Linecode=1P_UG_AL_1/0_Brenau_0_416_0_2_2_2_2

New Line.l(r:p3udm3374-p3udt986lv) Units=km Length=0.00995932 bus1=p3udt986lv.1.2 bus2=p3udm3374.1.2 switch=n enabled=y phases=2 Linecode=1P_UG_AL_1/0_Brenau_0_416_0_2_2_2_2

New Line.l(r:p3udt1734lv-p3ulv60981) Units=km Length=0.011711400000000002 bus1=p3udt1734lv.1.2 bus2=p3ulv60981.1.2 switch=n enabled=y phases=2 Linecode=1P_UG_AL_1/0_Brenau_0_416_0_2_2_2_2

New Line.l(r:p3udm5978-p3ulv1930) Units=km Length=0.0123451 bus1=p3udm5978.1.2 bus2=p3ulv1930.1.2 switch=n enabled=y phases=2 Linecode=1P_UG_AL_1/0_Brenau_0_416_0_2_2_2_2

New Line.l(r:p3udm5978-p3udt1734lv) Units=km Length=0.0198609 bus1=p3udt1734lv.1.2 bus2=p3udm5978.1.2 switch=n enabled=y phases=2 Linecode=1P_UG_AL_1/0_Brenau_0_416_0_2_2_2_2

New Line.l(r:p3udm5979-p3ulv13759) Units=km Length=0.0125227 bus1=p3udm5979.1.2 bus2=p3ulv13759.1.2 switch=n enabled=y phases=2 Linecode=1P_UG_AL_1/0_Brenau_0_416_0_2_2_2_2

New Line.l(r:p3udm5979-p3ulv16926) Units=km Length=0.0228025 bus1=p3udm5979.1.2 bus2=p3ulv16926.1.2 switch=n enabled=y phases=2 Linecode=1P_UG_AL_1/0_Brenau_0_416_0_2_2_2_2

New Line.l(r:p3udm5979-p3udt1734lv) Units=km Length=0.0099302 bus1=p3udt1734lv.1.2 bus2=p3udm5979.1.2 switch=n enabled=y phases=2 Linecode=1P_UG_AL_4/0_Sweetbriar_0_416_0_2_2_2_2

New Line.l(r:p3udt1741lv-p3ulv1938) Units=km Length=0.0045826 bus1=p3udt1741lv.1.2 bus2=p3ulv1938.1.2 switch=n enabled=y phases=2 Linecode=1P_UG_AL_4/0_Sweetbriar_0_416_0_2_2_2_2

New Line.l(r:p3udt2463lv-p3ulv2722) Units=km Length=0.0173216 bus1=p3udt2463lv.1.2 bus2=p3ulv2722.1.2 switch=n enabled=y phases=2 Linecode=1P_UG_AL_1/0_Brenau_0_416_0_2_2_2_2

New Line.l(r:p3udm8526-p3ulv11432) Units=km Length=0.0179245 bus1=p3udm8526.1.2 bus2=p3ulv11432.1.2 switch=n enabled=y phases=2 Linecode=1P_UG_AL_1/0_Brenau_0_416_0_2_2_2_2

New Line.l(r:p3udm8526-p3udt2463lv) Units=km Length=0.009634150000000001 bus1=p3udt2463lv.1.2 bus2=p3udm8526.1.2 switch=n enabled=y phases=2 Linecode=1P_UG_AL_1/0_Brenau_0_416_0_2_2_2_2

New Line.l(r:p3udm8527-p3ulv41735) Units=km Length=0.014480000000000002 bus1=p3udm8527.1.2 bus2=p3ulv41735.1.2 switch=n enabled=y phases=2 Linecode=1P_UG_AL_1/0_Brenau_0_416_0_2_2_2_2

New Line.l(r:p3udm8527-p3udt2463lv) Units=km Length=0.00963206 bus1=p3udt2463lv.1.2 bus2=p3udm8527.1.2 switch=n enabled=y phases=2 Linecode=1P_UG_AL_1/0_Brenau_0_416_0_2_2_2_2

New Line.l(r:p3udm8528-p3ulv2723) Units=km Length=0.0179443 bus1=p3udm8528.1.2 bus2=p3ulv2723.1.2 switch=n enabled=y phases=2 Linecode=1P_UG_AL_1/0_Brenau_0_416_0_2_2_2_2

New Line.l(r:p3udm8528-p3ulv48727) Units=km Length=0.0167622 bus1=p3udm8528.1.2 bus2=p3ulv48727.1.2 switch=n enabled=y phases=2 Linecode=1P_UG_AL_2/0_Converse_0_416_0_2_2_2_2

New Line.l(r:p3udm8528-p3udt2464lv) Units=km Length=0.00863474 bus1=p3udt2464lv.1.2 bus2=p3udm8528.1.2 switch=n enabled=y phases=2 Linecode=1P_UG_AL_4/0_Sweetbriar_0_416_0_2_2_2_2

New Line.l(r:p3udm8529-p3ulv47241) Units=km Length=0.018602500000000004 bus1=p3udm8529.1.2 bus2=p3ulv47241.1.2 switch=n enabled=y phases=2 Linecode=1P_UG_AL_1/0_Brenau_0_416_0_2_2_2_2

New Line.l(r:p3udm8529-p3udt2464lv) Units=km Length=0.0258852 bus1=p3udt2464lv.1.2 bus2=p3udm8529.1.2 switch=n enabled=y phases=2 Linecode=1P_UG_AL_1/0_Brenau_0_416_0_2_2_2_2

New Line.l(r:p3udt2473lv-p3ulv2732) Units=km Length=0.0148484 bus1=p3udt2473lv.1.2 bus2=p3ulv2732.1.2 switch=n enabled=y phases=2 Linecode=1P_UG_AL_1/0_Brenau_0_416_0_2_2_2_2

New Line.l(r:p3udm8572-p3ulv22287) Units=km Length=0.0178404 bus1=p3udm8572.1.2 bus2=p3ulv22287.1.2 switch=n enabled=y phases=2 Linecode=1P_UG_AL_1/0_Brenau_0_416_0_2_2_2_2

New Line.l(r:p3udm8575-p3ulv70200) Units=km Length=0.0147318 bus1=p3udm8575.1.2 bus2=p3ulv70200.1.2 switch=n enabled=y phases=2 Linecode=1P_UG_AL_1/0_Brenau_0_416_0_2_2_2_2

New Line.l(r:p3udm8572-p3udm8575) Units=km Length=0.00894325 bus1=p3udm8572.1.2 bus2=p3udm8575.1.2 switch=n enabled=y phases=2 Linecode=1P_UG_AL_1/0_Brenau_0_416_0_2_2_2_2

New Line.l(r:p3udm8572-p3udt2473lv) Units=km Length=0.00895282 bus1=p3udt2473lv.1.2 bus2=p3udm8572.1.2 switch=n enabled=y phases=2 Linecode=1P_UG_AL_4/0_Sweetbriar_0_416_0_2_2_2_2

New Line.l(r:p3udm8573-p3ulv32507) Units=km Length=0.0166812 bus1=p3udm8573.1.2 bus2=p3ulv32507.1.2 switch=n enabled=y phases=2 Linecode=1P_UG_AL_1/0_Brenau_0_416_0_2_2_2_2

New Line.l(r:p3udm8574-p3ulv55638) Units=km Length=0.0130305 bus1=p3udm8574.1.2 bus2=p3ulv55638.1.2 switch=n enabled=y phases=2 Linecode=1P_UG_AL_1/0_Brenau_0_416_0_2_2_2_2

New Line.l(r:p3udm8573-p3udm8574) Units=km Length=0.0095365 bus1=p3udm8573.1.2 bus2=p3udm8574.1.2 switch=n enabled=y phases=2 Linecode=1P_UG_AL_1/0_Brenau_0_416_0_2_2_2_2

New Line.l(r:p3udm8573-p3udt2473lv) Units=km Length=0.00954322 bus1=p3udt2473lv.1.2 bus2=p3udm8573.1.2 switch=n enabled=y phases=2 Linecode=1P_UG_AL_4/0_Sweetbriar_0_416_0_2_2_2_2

New Line.l(r:p3udt2474lv-p3ulv24718) Units=km Length=0.0180291 bus1=p3udt2474lv.1.2 bus2=p3ulv24718.1.2 switch=n enabled=y phases=2 Linecode=1P_UG_AL_1/0_Brenau_0_416_0_2_2_2_2

New Line.l(r:p3udm8576-p3ulv2733) Units=km Length=0.0188935 bus1=p3udm8576.1.2 bus2=p3ulv2733.1.2 switch=n enabled=y phases=2 Linecode=1P_UG_AL_1/0_Brenau_0_416_0_2_2_2_2

New Line.l(r:p3udm8576-p3ulv74778) Units=km Length=0.0162587 bus1=p3udm8576.1.2 bus2=p3ulv74778.1.2 switch=n enabled=y phases=2 Linecode=1P_UG_AL_1/0_Brenau_0_416_0_2_2_2_2

New Line.l(r:p3udm8578-p3ulv42532) Units=km Length=0.0195045 bus1=p3udm8578.1.2 bus2=p3ulv42532.1.2 switch=n enabled=y phases=2 Linecode=1P_UG_AL_1/0_Brenau_0_416_0_2_2_2_2

New Line.l(r:p3udm8579-p3ulv73262) Units=km Length=0.0167178 bus1=p3udm8579.1.2 bus2=p3ulv73262.1.2 switch=n enabled=y phases=2 Linecode=1P_UG_AL_1/0_Brenau_0_416_0_2_2_2_2

New Line.l(r:p3udm8578-p3udm8579) Units=km Length=0.00992113 bus1=p3udm8578.1.2 bus2=p3udm8579.1.2 switch=n enabled=y phases=2 Linecode=1P_UG_AL_1/0_Brenau_0_416_0_2_2_2_2

New Line.l(r:p3udm8576-p3udm8578) Units=km Length=0.0198523 bus1=p3udm8576.1.2 bus2=p3udm8578.1.2 switch=n enabled=y phases=2 Linecode=1P_UG_AL_4/0_Sweetbriar_0_416_0_2_2_2_2

New Line.l(r:p3udm8576-p3udt2474lv) Units=km Length=0.00992113 bus1=p3udt2474lv.1.2 bus2=p3udm8576.1.2 switch=n enabled=y phases=2 Linecode=1P_UG_AL_4/0_Sweetbriar_0_416_0_2_2_2_2

New Line.l(r:p3udt3204lv-p3ulv37056) Units=km Length=0.016293200000000004 bus1=p3udt3204lv.1.2 bus2=p3ulv37056.1.2 switch=n enabled=y phases=2 Linecode=1P_UG_AL_1/0_Brenau_0_416_0_2_2_2_2

New Line.l(r:p3udt3204lv-p3ulv72506) Units=km Length=0.014756 bus1=p3udt3204lv.1.2 bus2=p3ulv72506.1.2 switch=n enabled=y phases=2 Linecode=1P_UG_AL_1/0_Brenau_0_416_0_2_2_2_2

New Line.l(r:p3udm11063-p3ulv3533) Units=km Length=0.018765 bus1=p3udm11063.1.2 bus2=p3ulv3533.1.2 switch=n enabled=y phases=2 Linecode=1P_UG_AL_1/0_Brenau_0_416_0_2_2_2_2

New Line.l(r:p3udm11063-p3udt3204lv) Units=km Length=0.00996593 bus1=p3udt3204lv.1.2 bus2=p3udm11063.1.2 switch=n enabled=y phases=2 Linecode=1P_UG_AL_1/0_Brenau_0_416_0_2_2_2_2

New Line.l(r:p3udm11064-p3ulv23070) Units=km Length=0.0163528 bus1=p3udm11064.1.2 bus2=p3ulv23070.1.2 switch=n enabled=y phases=2 Linecode=1P_UG_AL_1/0_Brenau_0_416_0_2_2_2_2

New Line.l(r:p3udm11064-p3udt3204lv) Units=km Length=0.00996593 bus1=p3udt3204lv.1.2 bus2=p3udm11064.1.2 switch=n enabled=y phases=2 Linecode=1P_UG_AL_1/0_Brenau_0_416_0_2_2_2_2

New Line.l(r:p3udt3205lv-p3ulv3534) Units=km Length=0.00566424 bus1=p3udt3205lv.1.2 bus2=p3ulv3534.1.2 switch=n enabled=y phases=2 Linecode=1P_UG_AL_1/0_Brenau_0_416_0_2_2_2_2

New Line.l(r:p3udt3881lv-p3ulv44091) Units=km Length=0.0152853 bus1=p3udt3881lv.1.2 bus2=p3ulv44091.1.2 switch=n enabled=y phases=2 Linecode=1P_UG_AL_1/0_Brenau_0_416_0_2_2_2_2

New Line.l(r:p3udm13423-p3ulv4313) Units=km Length=0.0165728 bus1=p3udm13423.1.2 bus2=p3ulv4313.1.2 switch=n enabled=y phases=2 Linecode=1P_UG_AL_1/0_Brenau_0_416_0_2_2_2_2

New Line.l(r:p3udm13423-p3udt3881lv) Units=km Length=0.00983285 bus1=p3udt3881lv.1.2 bus2=p3udm13423.1.2 switch=n enabled=y phases=2 Linecode=1P_UG_AL_1/0_Brenau_0_416_0_2_2_2_2

New Line.l(r:p3udm13424-p3ulv30111) Units=km Length=0.015504900000000002 bus1=p3udm13424.1.2 bus2=p3ulv30111.1.2 switch=n enabled=y phases=2 Linecode=1P_UG_AL_1/0_Brenau_0_416_0_2_2_2_2

New Line.l(r:p3udm13424-p3ulv75497) Units=km Length=0.0155886 bus1=p3udm13424.1.2 bus2=p3ulv75497.1.2 switch=n enabled=y phases=2 Linecode=1P_UG_AL_1/0_Brenau_0_416_0_2_2_2_2

New Line.l(r:p3udm13424-p3udt3881lv) Units=km Length=0.00983285 bus1=p3udt3881lv.1.2 bus2=p3udm13424.1.2 switch=n enabled=y phases=2 Linecode=1P_UG_AL_4/0_Sweetbriar_0_416_0_2_2_2_2

New Line.l(r:p3udt3882lv-p3ulv64021) Units=km Length=0.0195854 bus1=p3udt3882lv.1.2 bus2=p3ulv64021.1.2 switch=n enabled=y phases=2 Linecode=1P_UG_AL_1/0_Brenau_0_416_0_2_2_2_2

New Line.l(r:p3udm13427-p3ulv4314) Units=km Length=0.0208239 bus1=p3udm13427.1.2 bus2=p3ulv4314.1.2 switch=n enabled=y phases=2 Linecode=1P_UG_AL_1/0_Brenau_0_416_0_2_2_2_2

New Line.l(r:p3udm13427-p3udt3882lv) Units=km Length=0.00985431 bus1=p3udt3882lv.1.2 bus2=p3udm13427.1.2 switch=n enabled=y phases=2 Linecode=1P_UG_AL_1/0_Brenau_0_416_0_2_2_2_2

New Line.l(r:p3udm13428-p3ulv27830) Units=km Length=0.012373900000000002 bus1=p3udm13428.1.2 bus2=p3ulv27830.1.2 switch=n enabled=y phases=2 Linecode=1P_UG_AL_1/0_Brenau_0_416_0_2_2_2_2

New Line.l(r:p3udm13428-p3udt3882lv) Units=km Length=0.00986164 bus1=p3udt3882lv.1.2 bus2=p3udm13428.1.2 switch=n enabled=y phases=2 Linecode=1P_UG_AL_1/0_Brenau_0_416_0_2_2_2_2

New Line.l(r:p3udm13444-p3ulv33294) Units=km Length=0.0136822 bus1=p3udm13444.1.2 bus2=p3ulv33294.1.2 switch=n enabled=y phases=2 Linecode=1P_UG_AL_1/0_Brenau_0_416_0_2_2_2_2

New Line.l(r:p3udm13443-p3ulv4321) Units=km Length=0.0125452 bus1=p3udm13443.1.2 bus2=p3ulv4321.1.2 switch=n enabled=y phases=2 Linecode=1P_UG_AL_1/0_Brenau_0_416_0_2_2_2_2

New Line.l(r:p3udm13443-p3udm13444) Units=km Length=0.00976312 bus1=p3udm13444.1.2 bus2=p3udm13443.1.2 switch=n enabled=y phases=2 Linecode=1P_UG_AL_1/0_Brenau_0_416_0_2_2_2_2

New Line.l(r:p3udm13444-p3udt3889lv) Units=km Length=0.00976453 bus1=p3udt3889lv.1.2 bus2=p3udm13444.1.2 switch=n enabled=y phases=2 Linecode=1P_UG_AL_4/0_Sweetbriar_0_416_0_2_2_2_2

New Line.l(r:p3udm13445-p3ulv63309) Units=km Length=0.0167656 bus1=p3udm13445.1.2 bus2=p3ulv63309.1.2 switch=n enabled=y phases=2 Linecode=1P_UG_AL_1/0_Brenau_0_416_0_2_2_2_2

New Line.l(r:p3udm13445-p3udt3889lv) Units=km Length=0.018798 bus1=p3udt3889lv.1.2 bus2=p3udm13445.1.2 switch=n enabled=y phases=2 Linecode=1P_UG_AL_1/0_Brenau_0_416_0_2_2_2_2

New Line.l(r:p3udt4590lv-p3ulv8310) Units=km Length=0.014222400000000001 bus1=p3udt4590lv.1.2 bus2=p3ulv8310.1.2 switch=n enabled=y phases=2 Linecode=1P_UG_AL_1/0_Brenau_0_416_0_2_2_2_2

New Line.l(r:p3udt4590lv-p3ulv16923) Units=km Length=0.0157084 bus1=p3udt4590lv.1.2 bus2=p3ulv16923.1.2 switch=n enabled=y phases=2 Linecode=1P_UG_AL_1/0_Brenau_0_416_0_2_2_2_2

New Line.l(r:p3udm15844-p3ulv5108) Units=km Length=0.018853 bus1=p3udm15844.1.2 bus2=p3ulv5108.1.2 switch=n enabled=y phases=2 Linecode=1P_UG_AL_1/0_Brenau_0_416_0_2_2_2_2

New Line.l(r:p3udm15844-p3udt4590lv) Units=km Length=0.00934887 bus1=p3udt4590lv.1.2 bus2=p3udm15844.1.2 switch=n enabled=y phases=2 Linecode=1P_UG_AL_1/0_Brenau_0_416_0_2_2_2_2

New Line.l(r:p3udt4591lv-p3ulv11446) Units=km Length=0.0173483 bus1=p3udt4591lv.1.2 bus2=p3ulv11446.1.2 switch=n enabled=y phases=2 Linecode=1P_UG_AL_1/0_Brenau_0_416_0_2_2_2_2

New Line.l(r:p3udm15847-p3ulv5109) Units=km Length=0.017509400000000005 bus1=p3udm15847.1.2 bus2=p3ulv5109.1.2 switch=n enabled=y phases=2 Linecode=1P_UG_AL_1/0_Brenau_0_416_0_2_2_2_2

New Line.l(r:p3udm15847-p3udt4591lv) Units=km Length=0.00923085 bus1=p3udt4591lv.1.2 bus2=p3udm15847.1.2 switch=n enabled=y phases=2 Linecode=1P_UG_AL_1/0_Brenau_0_416_0_2_2_2_2

New Line.l(r:p3udm15849-p3ulv50998) Units=km Length=0.0139322 bus1=p3udm15849.1.2 bus2=p3ulv50998.1.2 switch=n enabled=y phases=2 Linecode=1P_UG_AL_1/0_Brenau_0_416_0_2_2_2_2

New Line.l(r:p3udm15849-p3udt4591lv) Units=km Length=0.00924031 bus1=p3udt4591lv.1.2 bus2=p3udm15849.1.2 switch=n enabled=y phases=2 Linecode=1P_UG_AL_1/0_Brenau_0_416_0_2_2_2_2

New Line.l(r:p3udt4592lv-p3ulv5110) Units=km Length=0.0161543 bus1=p3udt4592lv.1.2 bus2=p3ulv5110.1.2 switch=n enabled=y phases=2 Linecode=1P_UG_AL_1/0_Brenau_0_416_0_2_2_2_2

New Line.l(r:p3udm15851-p3ulv33288) Units=km Length=0.0168141 bus1=p3udm15851.1.2 bus2=p3ulv33288.1.2 switch=n enabled=y phases=2 Linecode=1P_UG_AL_1/0_Brenau_0_416_0_2_2_2_2

New Line.l(r:p3udm15851-p3udt4592lv) Units=km Length=0.00924954 bus1=p3udt4592lv.1.2 bus2=p3udm15851.1.2 switch=n enabled=y phases=2 Linecode=1P_UG_AL_1/0_Brenau_0_416_0_2_2_2_2

New Line.l(r:p3udt5271lv-p3ulv23851) Units=km Length=0.0207617 bus1=p3udt5271lv.1.2 bus2=p3ulv23851.1.2 switch=n enabled=y phases=2 Linecode=1P_UG_AL_1/0_Brenau_0_416_0_2_2_2_2

New Line.l(r:p3udt5271lv-p3ulv64777) Units=km Length=0.0141294 bus1=p3udt5271lv.1.2 bus2=p3ulv64777.1.2 switch=n enabled=y phases=2 Linecode=1P_UG_AL_1/0_Brenau_0_416_0_2_2_2_2

New Line.l(r:p3udm18139-p3ulv5913) Units=km Length=0.0139508 bus1=p3udm18139.1.2 bus2=p3ulv5913.1.2 switch=n enabled=y phases=2 Linecode=1P_UG_AL_1/0_Brenau_0_416_0_2_2_2_2

New Line.l(r:p3udm18139-p3udt5271lv) Units=km Length=0.00980892 bus1=p3udt5271lv.1.2 bus2=p3udm18139.1.2 switch=n enabled=y phases=2 Linecode=1P_UG_AL_1/0_Brenau_0_416_0_2_2_2_2

New Line.l(r:p3udt5272lv-p3ulv5914) Units=km Length=0.0163694 bus1=p3udt5272lv.1.2 bus2=p3ulv5914.1.2 switch=n enabled=y phases=2 Linecode=1P_UG_AL_2/0_Converse_0_416_0_2_2_2_2

New Line.l(r:p3udt5272lv-p3ulv30892) Units=km Length=0.0150508 bus1=p3udt5272lv.1.2 bus2=p3ulv30892.1.2 switch=n enabled=y phases=2 Linecode=1P_UG_AL_4/0_Sweetbriar_0_416_0_2_2_2_2

New Line.l(r:p3udt5273lv-p3ulv5915) Units=km Length=0.0358211 bus1=p3udt5273lv.1.2 bus2=p3ulv5915.1.2 switch=n enabled=y phases=2 Linecode=1P_OH_AL_4/0_Zuzara_0_416_0_2_2_2_2

New Line.l(r:p3udt5277lv-p3ulv5919) Units=km Length=0.0209577 bus1=p3udt5277lv.1.2 bus2=p3ulv5919.1.2 switch=n enabled=y phases=2 Linecode=1P_UG_AL_1/0_Brenau_0_416_0_2_2_2_2

New Line.l(r:p3udt5277lv-p3ulv56437) Units=km Length=0.0131315 bus1=p3udt5277lv.1.2 bus2=p3ulv56437.1.2 switch=n enabled=y phases=2 Linecode=1P_UG_AL_1/0_Brenau_0_416_0_2_2_2_2

New Line.l(r:p3udt6535lv-p3ulv60978) Units=km Length=0.023662 bus1=p3udt6535lv.1.2 bus2=p3ulv60978.1.2 switch=n enabled=y phases=2 Linecode=1P_UG_AL_1/0_Brenau_0_416_0_2_2_2_2

New Line.l(r:p3udt6535lv-p3ulv76307) Units=km Length=0.0205342 bus1=p3udt6535lv.1.2 bus2=p3ulv76307.1.2 switch=n enabled=y phases=2 Linecode=1P_UG_AL_1/0_Brenau_0_416_0_2_2_2_2

New Line.l(r:p3udm22304-p3ulv7495) Units=km Length=0.019488 bus1=p3udm22304.1.2 bus2=p3ulv7495.1.2 switch=n enabled=y phases=2 Linecode=1P_UG_AL_1/0_Brenau_0_416_0_2_2_2_2

New Line.l(r:p3udm22304-p3udt6535lv) Units=km Length=0.0187075 bus1=p3udt6535lv.1.2 bus2=p3udm22304.1.2 switch=n enabled=y phases=2 Linecode=1P_UG_AL_1/0_Brenau_0_416_0_2_2_2_2

New Line.l(r:p3udt6536lv-p3ulv44941) Units=km Length=0.0181043 bus1=p3udt6536lv.1.2 bus2=p3ulv44941.1.2 switch=n enabled=y phases=2 Linecode=1P_UG_AL_1/0_Brenau_0_416_0_2_2_2_2

New Line.l(r:p3udm22307-p3ulv7496) Units=km Length=0.0162166 bus1=p3udm22307.1.2 bus2=p3ulv7496.1.2 switch=n enabled=y phases=2 Linecode=1P_UG_AL_1/0_Brenau_0_416_0_2_2_2_2

New Line.l(r:p3udm22307-p3udt6536lv) Units=km Length=0.00967383 bus1=p3udt6536lv.1.2 bus2=p3udm22307.1.2 switch=n enabled=y phases=2 Linecode=1P_UG_AL_1/0_Brenau_0_416_0_2_2_2_2

New Line.l(r:p3udm22308-p3ulv14541) Units=km Length=0.0184412 bus1=p3udm22308.1.2 bus2=p3ulv14541.1.2 switch=n enabled=y phases=2 Linecode=1P_UG_AL_1/0_Brenau_0_416_0_2_2_2_2

New Line.l(r:p3udm22308-p3udt6536lv) Units=km Length=0.0193566 bus1=p3udt6536lv.1.2 bus2=p3udm22308.1.2 switch=n enabled=y phases=2 Linecode=1P_UG_AL_1/0_Brenau_0_416_0_2_2_2_2

New Line.l(r:p3udm22310-p3ulv7498) Units=km Length=0.0177146 bus1=p3udm22310.1.2 bus2=p3ulv7498.1.2 switch=n enabled=y phases=2 Linecode=1P_UG_AL_1/0_Brenau_0_416_0_2_2_2_2

New Line.l(r:p3udm22310-p3udt6537lv) Units=km Length=0.0191795 bus1=p3udt6537lv.1.2 bus2=p3udm22310.1.2 switch=n enabled=y phases=2 Linecode=1P_UG_AL_1/0_Brenau_0_416_0_2_2_2_2

New Line.l(r:p3udm22311-p3ulv16124) Units=km Length=0.015666 bus1=p3udm22311.1.2 bus2=p3ulv16124.1.2 switch=n enabled=y phases=2 Linecode=1P_UG_AL_1/0_Brenau_0_416_0_2_2_2_2

New Line.l(r:p3udm22311-p3ulv21505) Units=km Length=0.0173169 bus1=p3udm22311.1.2 bus2=p3ulv21505.1.2 switch=n enabled=y phases=2 Linecode=1P_UG_AL_1/0_Brenau_0_416_0_2_2_2_2

New Line.l(r:p3udm22311-p3udt6537lv) Units=km Length=0.00936456 bus1=p3udt6537lv.1.2 bus2=p3udm22311.1.2 switch=n enabled=y phases=2 Linecode=1P_UG_AL_4/0_Sweetbriar_0_416_0_2_2_2_2

New Line.l(r:p3udt6541lv-p3ulv42537) Units=km Length=0.0151619 bus1=p3udt6541lv.1.2 bus2=p3ulv42537.1.2 switch=n enabled=y phases=2 Linecode=1P_UG_AL_2/0_Converse_0_416_0_2_2_2_2

New Line.l(r:p3udt6541lv-p3ulv48021) Units=km Length=0.0162445 bus1=p3udt6541lv.1.2 bus2=p3ulv48021.1.2 switch=n enabled=y phases=2 Linecode=1P_UG_AL_1/0_Brenau_0_416_0_2_2_2_2

New Line.l(r:p3udm22324-p3ulv7502) Units=km Length=0.019124 bus1=p3udm22324.1.2 bus2=p3ulv7502.1.2 switch=n enabled=y phases=2 Linecode=1P_UG_AL_1/0_Brenau_0_416_0_2_2_2_2

New Line.l(r:p3udm22324-p3udt6541lv) Units=km Length=0.019447300000000004 bus1=p3udt6541lv.1.2 bus2=p3udm22324.1.2 switch=n enabled=y phases=2 Linecode=1P_UG_AL_1/0_Brenau_0_416_0_2_2_2_2

New Line.l(r:p3udm22327-p3ulv58723) Units=km Length=0.0156776 bus1=p3udm22327.1.2 bus2=p3ulv58723.1.2 switch=n enabled=y phases=2 Linecode=1P_UG_AL_1/0_Brenau_0_416_0_2_2_2_2

New Line.l(r:p3udm22327-p3ulv67102) Units=km Length=0.0172909 bus1=p3udm22327.1.2 bus2=p3ulv67102.1.2 switch=n enabled=y phases=2 Linecode=1P_UG_AL_1/0_Brenau_0_416_0_2_2_2_2

New Line.l(r:p3udm22327-p3udt6541lv) Units=km Length=0.00972864 bus1=p3udt6541lv.1.2 bus2=p3udm22327.1.2 switch=n enabled=y phases=2 Linecode=1P_UG_AL_4/0_Sweetbriar_0_416_0_2_2_2_2

New Line.l(r:p3udm24487-p3ulv8312) Units=km Length=0.0184766 bus1=p3udm24487.1.2 bus2=p3ulv8312.1.2 switch=n enabled=y phases=2 Linecode=1P_UG_AL_1/0_Brenau_0_416_0_2_2_2_2

New Line.l(r:p3udm24487-p3udt7184lv) Units=km Length=0.00849301 bus1=p3udt7184lv.1.2 bus2=p3udm24487.1.2 switch=n enabled=y phases=2 Linecode=1P_UG_AL_1/0_Brenau_0_416_0_2_2_2_2

New Line.l(r:p3udm24488-p3ulv12969) Units=km Length=0.0170781 bus1=p3udm24488.1.2 bus2=p3ulv12969.1.2 switch=n enabled=y phases=2 Linecode=1P_UG_AL_1/0_Brenau_0_416_0_2_2_2_2

New Line.l(r:p3udm24488-p3udt7184lv) Units=km Length=0.00850263 bus1=p3udt7184lv.1.2 bus2=p3udm24488.1.2 switch=n enabled=y phases=2 Linecode=1P_UG_AL_1/0_Brenau_0_416_0_2_2_2_2

New Line.l(r:p3udt7186lv-p3ulv37063) Units=km Length=0.0131996 bus1=p3udt7186lv.1.2 bus2=p3ulv37063.1.2 switch=n enabled=y phases=2 Linecode=1P_UG_AL_1/0_Brenau_0_416_0_2_2_2_2

New Line.l(r:p3udm24491-p3ulv8315) Units=km Length=0.0172042 bus1=p3udm24491.1.2 bus2=p3ulv8315.1.2 switch=n enabled=y phases=2 Linecode=1P_UG_AL_1/0_Brenau_0_416_0_2_2_2_2

New Line.l(r:p3udm24492-p3ulv18431) Units=km Length=0.0152991 bus1=p3udm24492.1.2 bus2=p3ulv18431.1.2 switch=n enabled=y phases=2 Linecode=1P_UG_AL_1/0_Brenau_0_416_0_2_2_2_2

New Line.l(r:p3udm24491-p3udm24492) Units=km Length=0.00995932 bus1=p3udm24491.1.2 bus2=p3udm24492.1.2 switch=n enabled=y phases=2 Linecode=1P_UG_AL_1/0_Brenau_0_416_0_2_2_2_2

New Line.l(r:p3udm24491-p3udt7186lv) Units=km Length=0.00995171 bus1=p3udt7186lv.1.2 bus2=p3udm24491.1.2 switch=n enabled=y phases=2 Linecode=1P_UG_AL_4/0_Sweetbriar_0_416_0_2_2_2_2

New Line.l(r:p3udm24494-p3ulv52563) Units=km Length=0.0132806 bus1=p3udm24494.1.2 bus2=p3ulv52563.1.2 switch=n enabled=y phases=2 Linecode=1P_UG_AL_1/0_Brenau_0_416_0_2_2_2_2

New Line.l(r:p3udm24494-p3udt7186lv) Units=km Length=0.019911 bus1=p3udt7186lv.1.2 bus2=p3udm24494.1.2 switch=n enabled=y phases=2 Linecode=1P_UG_AL_1/0_Brenau_0_416_0_2_2_2_2

New Line.l(r:p3udt7768lv-p3ulv9076) Units=km Length=0.0132034 bus1=p3udt7768lv.1.2 bus2=p3ulv9076.1.2 switch=n enabled=y phases=2 Linecode=1P_UG_AL_1/0_Brenau_0_416_0_2_2_2_2

New Line.l(r:p3udt7768lv-p3ulv13753) Units=km Length=0.0174304 bus1=p3udt7768lv.1.2 bus2=p3ulv13753.1.2 switch=n enabled=y phases=2 Linecode=1P_UG_AL_1/0_Brenau_0_416_0_2_2_2_2

New Line.l(r:p3udm26352-p3ulv47254) Units=km Length=0.0189642 bus1=p3udm26352.1.2 bus2=p3ulv47254.1.2 switch=n enabled=y phases=2 Linecode=1P_UG_AL_1/0_Brenau_0_416_0_2_2_2_2

New Line.l(r:p3udm26352-p3udt7768lv) Units=km Length=0.00941172 bus1=p3udt7768lv.1.2 bus2=p3udm26352.1.2 switch=n enabled=y phases=2 Linecode=1P_UG_AL_1/0_Brenau_0_416_0_2_2_2_2

New Line.l(r:p3udt7770lv-p3ulv9078) Units=km Length=0.014387700000000002 bus1=p3udt7770lv.1.2 bus2=p3ulv9078.1.2 switch=n enabled=y phases=2 Linecode=1P_UG_AL_1/0_Brenau_0_416_0_2_2_2_2

New Line.l(r:p3udm26355-p3ulv17668) Units=km Length=0.0145886 bus1=p3udm26355.1.2 bus2=p3ulv17668.1.2 switch=n enabled=y phases=2 Linecode=1P_UG_AL_1/0_Brenau_0_416_0_2_2_2_2

New Line.l(r:p3udm26355-p3ulv71018) Units=km Length=0.0186443 bus1=p3udm26355.1.2 bus2=p3ulv71018.1.2 switch=n enabled=y phases=2 Linecode=1P_UG_AL_1/0_Brenau_0_416_0_2_2_2_2

New Line.l(r:p3udm26355-p3udt7770lv) Units=km Length=0.00985877 bus1=p3udt7770lv.1.2 bus2=p3udm26355.1.2 switch=n enabled=y phases=2 Linecode=1P_UG_AL_4/0_Sweetbriar_0_416_0_2_2_2_2

New Line.l(r:p3udt7771lv-p3ulv54089) Units=km Length=0.015074900000000002 bus1=p3udt7771lv.1.2 bus2=p3ulv54089.1.2 switch=n enabled=y phases=2 Linecode=1P_UG_AL_1/0_Brenau_0_416_0_2_2_2_2

New Line.l(r:p3udt7771lv-p3ulv60982) Units=km Length=0.0165583 bus1=p3udt7771lv.1.2 bus2=p3ulv60982.1.2 switch=n enabled=y phases=2 Linecode=1P_UG_AL_1/0_Brenau_0_416_0_2_2_2_2

New Line.l(r:p3udm26357-p3ulv9079) Units=km Length=0.0146147 bus1=p3udm26357.1.2 bus2=p3ulv9079.1.2 switch=n enabled=y phases=2 Linecode=1P_UG_AL_1/0_Brenau_0_416_0_2_2_2_2

New Line.l(r:p3udm26358-p3ulv33289) Units=km Length=0.0161713 bus1=p3udm26358.1.2 bus2=p3ulv33289.1.2 switch=n enabled=y phases=2 Linecode=1P_UG_AL_1/0_Brenau_0_416_0_2_2_2_2

New Line.l(r:p3udm26357-p3udm26358) Units=km Length=0.00814163 bus1=p3udm26357.1.2 bus2=p3udm26358.1.2 switch=n enabled=y phases=2 Linecode=1P_UG_AL_1/0_Brenau_0_416_0_2_2_2_2

New Line.l(r:p3udm26357-p3udt7771lv) Units=km Length=0.00814163 bus1=p3udt7771lv.1.2 bus2=p3udm26357.1.2 switch=n enabled=y phases=2 Linecode=1P_UG_AL_4/0_Sweetbriar_0_416_0_2_2_2_2

New Line.l(r:p3udm26360-p3ulv56431) Units=km Length=0.0145337 bus1=p3udm26360.1.2 bus2=p3ulv56431.1.2 switch=n enabled=y phases=2 Linecode=1P_UG_AL_1/0_Brenau_0_416_0_2_2_2_2

New Line.l(r:p3udm26360-p3udt7771lv) Units=km Length=0.0213386 bus1=p3udt7771lv.1.2 bus2=p3udm26360.1.2 switch=n enabled=y phases=2 Linecode=1P_UG_AL_1/0_Brenau_0_416_0_2_2_2_2

New Line.l(r:p3udt7772lv-p3ulv9080) Units=km Length=0.0152106 bus1=p3udt7772lv.1.2 bus2=p3ulv9080.1.2 switch=n enabled=y phases=2 Linecode=1P_UG_AL_1/0_Brenau_0_416_0_2_2_2_2

New Line.l(r:p3udt7772lv-p3ulv28576) Units=km Length=0.0165367 bus1=p3udt7772lv.1.2 bus2=p3ulv28576.1.2 switch=n enabled=y phases=2 Linecode=1P_UG_AL_2/0_Converse_0_416_0_2_2_2_2

New Line.l(r:p3udm28131-p3ulv9816) Units=km Length=0.0192836 bus1=p3udm28131.1.2 bus2=p3ulv9816.1.2 switch=n enabled=y phases=2 Linecode=1P_UG_AL_1/0_Brenau_0_416_0_2_2_2_2

New Line.l(r:p3udm28131-p3ulv58717) Units=km Length=0.0159174 bus1=p3udm28131.1.2 bus2=p3ulv58717.1.2 switch=n enabled=y phases=2 Linecode=1P_UG_AL_1/0_Brenau_0_416_0_2_2_2_2

New Line.l(r:p3udm28131-p3udt8330lv) Units=km Length=0.00986164 bus1=p3udt8330lv.1.2 bus2=p3udm28131.1.2 switch=n enabled=y phases=2 Linecode=1P_UG_AL_4/0_Sweetbriar_0_416_0_2_2_2_2

New Line.l(r:p3udm28132-p3ulv54087) Units=km Length=0.0149228 bus1=p3udm28132.1.2 bus2=p3ulv54087.1.2 switch=n enabled=y phases=2 Linecode=1P_UG_AL_1/0_Brenau_0_416_0_2_2_2_2

New Line.l(r:p3udm28132-p3udt8330lv) Units=km Length=0.0196773 bus1=p3udt8330lv.1.2 bus2=p3udm28132.1.2 switch=n enabled=y phases=2 Linecode=1P_UG_AL_1/0_Brenau_0_416_0_2_2_2_2

New Line.l(r:p3udt8904lv-p3ulv42530) Units=km Length=0.0134515 bus1=p3udt8904lv.1.2 bus2=p3ulv42530.1.2 switch=n enabled=y phases=2 Linecode=1P_UG_AL_1/0_Brenau_0_416_0_2_2_2_2

New Line.l(r:p3udt8904lv-p3ulv49505) Units=km Length=0.0207322 bus1=p3udt8904lv.1.2 bus2=p3ulv49505.1.2 switch=n enabled=y phases=2 Linecode=1P_UG_AL_1/0_Brenau_0_416_0_2_2_2_2

New Line.l(r:p3udm29933-p3ulv10616) Units=km Length=0.0148778 bus1=p3udm29933.1.2 bus2=p3ulv10616.1.2 switch=n enabled=y phases=2 Linecode=1P_UG_AL_1/0_Brenau_0_416_0_2_2_2_2
