New Line.l(r:p1rdt16lv-p1rlv17) Units=km Length=0.0224654 bus1=p1rdt16lv.1.2 bus2=p1rlv17.1.2 switch=n enabled=y phases=2 Linecode=1P_OH_AL_2/0_Rucina_0_416_0_2_2_2_2_2_2_2_2_2_2_2_2_2_2_2_2_2_2_2_2_2_2_2_2_2_2_2_2_2

New Line.l(r:p1rdt17lv-p1rlv18) Units=km Length=0.0863048 bus1=p1rdt17lv.1.2 bus2=p1rlv18.1.2 switch=n enabled=y phases=2 Linecode=1P_OH_AL_4/0_Zuzara_0_416_0_2_2_2_2_2_2_2_2_2_2_2_2_2_2_2_2_2_2_2_2_2_2_2_2_2_2_2_2_2

New Line.l(r:p1rdt133lv-p1rlv137) Units=km Length=0.0181711 bus1=p1rdt133lv.1.2 bus2=p1rlv137.1.2 switch=n enabled=y phases=2 Linecode=1P_OH_AL_2/0_Rucina_0_416_0_2_2_2_2_2_2_2_2_2_2_2_2_2_2_2_2_2_2_2_2_2_2_2_2_2_2_2_2_2

New Line.l(r:p1rdt133lv-p1rlv12753) Units=km Length=0.0230937 bus1=p1rdt133lv.1.2 bus2=p1rlv12753.1.2 switch=n enabled=y phases=2 Linecode=1P_OH_AL_2/0_Rucina_0_416_0_2_2_2_2_2_2_2_2_2_2_2_2_2_2_2_2_2_2_2_2_2_2_2_2_2_2_2_2_2

New Line.l(r:p1rdm319-p1rlv3897) Units=km Length=0.020753500000000005 bus1=p1rdm319.1.2 bus2=p1rlv3897.1.2 switch=n enabled=y phases=2 Linecode=1P_OH_AL_2/0_Rucina_0_416_0_2_2_2_2_2_2_2_2_2_2_2_2_2_2_2_2_2_2_2_2_2_2_2_2_2_2_2_2_2

New Line.l(r:p1rdm319-p1rdt133lv) Units=km Length=0.0169877 bus1=p1rdt133lv.1.2 bus2=p1rdm319.1.2 switch=n enabled=y phases=2 Linecode=1P_OH_AL_2/0_Rucina_0_416_0_2_2_2_2_2_2_2_2_2_2_2_2_2_2_2_2_2_2_2_2_2_2_2_2_2_2_2_2_2

New Line.l(r:p1rdm320-p1rlv10286) Units=km Length=0.026168600000000004 bus1=p1rdm320.1.2 bus2=p1rlv10286.1.2 switch=n enabled=y phases=2 Linecode=1P_OH_AL_2/0_Rucina_0_416_0_2_2_2_2_2_2_2_2_2_2_2_2_2_2_2_2_2_2_2_2_2_2_2_2_2_2_2_2_2

New Line.l(r:p1rdm320-p1rdt133lv) Units=km Length=0.0339843 bus1=p1rdt133lv.1.2 bus2=p1rdm320.1.2 switch=n enabled=y phases=2 Linecode=1P_OH_AL_4/0_Zuzara_0_416_0_2_2_2_2_2_2_2_2_2_2_2_2_2_2_2_2_2_2_2_2_2_2_2_2_2_2_2_2_2

New Line.l(r:p1rdt134lv-p1rlv138) Units=km Length=0.001 bus1=p1rdt134lv.1.2 bus2=p1rlv138.1.2 switch=n enabled=y phases=2 Linecode=1P_OH_AL_4_Periwinkle_0_416_0_2_2_2_2_2_2_2_2_2_2_2_2_2_2_2_2_2_2_2_2_2_2_2_2_2_2_2_2_2

New Line.l(r:p1rdt275lv-p1rlv283) Units=km Length=0.0267662 bus1=p1rdt275lv.1.2 bus2=p1rlv283.1.2 switch=n enabled=y phases=2 Linecode=1P_OH_AL_2/0_Rucina_0_416_0_2_2_2_2_2_2_2_2_2_2_2_2_2_2_2_2_2_2_2_2_2_2_2_2_2_2_2_2_2

New Line.l(r:p1rdt275lv-p1rlv5400) Units=km Length=0.0314231 bus1=p1rdt275lv.1.2 bus2=p1rlv5400.1.2 switch=n enabled=y phases=2 Linecode=1P_OH_AL_4/0_Zuzara_0_416_0_2_2_2_2_2_2_2_2_2_2_2_2_2_2_2_2_2_2_2_2_2_2_2_2_2_2_2_2_2

New Line.l(r:p1rdm649-p1rlv284) Units=km Length=0.0640558 bus1=p1rdm649.1.2 bus2=p1rlv284.1.2 switch=n enabled=y phases=2 Linecode=1P_OH_AL_4/0_Zuzara_0_416_0_2_2_2_2_2_2_2_2_2_2_2_2_2_2_2_2_2_2_2_2_2_2_2_2_2_2_2_2_2

New Line.l(r:p1rdm651-p1rlv3494) Units=km Length=0.0173183 bus1=p1rdm651.1.2 bus2=p1rlv3494.1.2 switch=n enabled=y phases=2 Linecode=1P_OH_AL_2/0_Rucina_0_416_0_2_2_2_2_2_2_2_2_2_2_2_2_2_2_2_2_2_2_2_2_2_2_2_2_2_2_2_2_2

New Line.l(r:p1rdm649-p1rdm651) Units=km Length=0.0284987 bus1=p1rdm649.1.2 bus2=p1rdm651.1.2 switch=n enabled=y phases=2 Linecode=1P_OH_AL_4/0_Zuzara_0_416_0_2_2_2_2_2_2_2_2_2_2_2_2_2_2_2_2_2_2_2_2_2_2_2_2_2_2_2_2_2

New Line.l(r:p1rdm649-p1rdt276lv) Units=km Length=0.0130851 bus1=p1rdt276lv.1.2 bus2=p1rdm649.1.2 switch=n enabled=y phases=2 Linecode=1P_OH_AL_2/0_Rucina_0_416_0_2_2_2_2_2_2_2_2_2_2_2_2_2_2_2_2_2_2_2_2_2_2_2_2_2_2_2_2_2

New Line.l(r:p1rdm650-p1rlv2968) Units=km Length=0.044293700000000005 bus1=p1rdm650.1.2 bus2=p1rlv2968.1.2 switch=n enabled=y phases=2 Linecode=1P_OH_AL_4/0_Zuzara_0_416_0_2_2_2_2_2_2_2_2_2_2_2_2_2_2_2_2_2_2_2_2_2_2_2_2_2_2_2_2_2

New Line.l(r:p1rdm652-p1rlv9478) Units=km Length=0.0663859 bus1=p1rdm652.1.2 bus2=p1rlv9478.1.2 switch=n enabled=y phases=2 Linecode=1P_OH_AL_4/0_Zuzara_0_416_0_2_2_2_2_2_2_2_2_2_2_2_2_2_2_2_2_2_2_2_2_2_2_2_2_2_2_2_2_2

New Line.l(r:p1rdm650-p1rdm652) Units=km Length=0.0181901 bus1=p1rdm650.1.2 bus2=p1rdm652.1.2 switch=n enabled=y phases=2 Linecode=1P_OH_AL_2/0_Rucina_0_416_0_2_2_2_2_2_2_2_2_2_2_2_2_2_2_2_2_2_2_2_2_2_2_2_2_2_2_2_2_2

New Line.l(r:p1rdm650-p1rdt276lv) Units=km Length=0.0181801 bus1=p1rdt276lv.1.2 bus2=p1rdm650.1.2 switch=n enabled=y phases=2 Linecode=1P_OH_AL_2/0_Rucina_0_416_0_2_2_2_2_2_2_2_2_2_2_2_2_2_2_2_2_2_2_2_2_2_2_2_2_2_2_2_2_2

New Line.l(r:p1rdm653-p1rlv285) Units=km Length=0.0351815 bus1=p1rdm653.1.2 bus2=p1rlv285.1.2 switch=n enabled=y phases=2 Linecode=1P_OH_AL_4/0_Zuzara_0_416_0_2_2_2_2_2_2_2_2_2_2_2_2_2_2_2_2_2_2_2_2_2_2_2_2_2_2_2_2_2

New Line.l(r:p1rdm653-p1rdt277lv) Units=km Length=0.0150707 bus1=p1rdt277lv.1.2 bus2=p1rdm653.1.2 switch=n enabled=y phases=2 Linecode=1P_OH_AL_2/0_Rucina_0_416_0_2_2_2_2_2_2_2_2_2_2_2_2_2_2_2_2_2_2_2_2_2_2_2_2_2_2_2_2_2

New Line.l(r:p1rdm654-p1rlv12507) Units=km Length=0.04926470000000001 bus1=p1rdm654.1.2 bus2=p1rlv12507.1.2 switch=n enabled=y phases=2 Linecode=1P_OH_AL_4/0_Zuzara_0_416_0_2_2_2_2_2_2_2_2_2_2_2_2_2_2_2_2_2_2_2_2_2_2_2_2_2_2_2_2_2

New Line.l(r:p1rdm654-p1rdt277lv) Units=km Length=0.0150707 bus1=p1rdt277lv.1.2 bus2=p1rdm654.1.2 switch=n enabled=y phases=2 Linecode=1P_OH_AL_2/0_Rucina_0_416_0_2_2_2_2_2_2_2_2_2_2_2_2_2_2_2_2_2_2_2_2_2_2_2_2_2_2_2_2_2

New Line.l(r:p1rdt288lv-p1rlv296) Units=km Length=0.0179923 bus1=p1rdt288lv.1.2 bus2=p1rlv296.1.2 switch=n enabled=y phases=2 Linecode=1P_OH_AL_2/0_Rucina_0_416_0_2_2_2_2_2_2_2_2_2_2_2_2_2_2_2_2_2_2_2_2_2_2_2_2_2_2_2_2_2

New Line.l(r:p1rdt397lv-p1rlv11680) Units=km Length=0.0320886 bus1=p1rdt397lv.1.2 bus2=p1rlv11680.1.2 switch=n enabled=y phases=2 Linecode=1P_OH_AL_4/0_Zuzara_0_416_0_2_2_2_2_2_2_2_2_2_2_2_2_2_2_2_2_2_2_2_2_2_2_2_2_2_2_2_2_2

New Line.l(r:p1rdm934-p1rlv406) Units=km Length=0.0360014 bus1=p1rdm934.1.2 bus2=p1rlv406.1.2 switch=n enabled=y phases=2 Linecode=1P_OH_AL_4/0_Zuzara_0_416_0_2_2_2_2_2_2_2_2_2_2_2_2_2_2_2_2_2_2_2_2_2_2_2_2_2_2_2_2_2

New Line.l(r:p1rdm934-p1rlv3785) Units=km Length=0.0398775 bus1=p1rdm934.1.2 bus2=p1rlv3785.1.2 switch=n enabled=y phases=2 Linecode=1P_OH_AL_4/0_Zuzara_0_416_0_2_2_2_2_2_2_2_2_2_2_2_2_2_2_2_2_2_2_2_2_2_2_2_2_2_2_2_2_2

New Line.l(r:p1rdm934-p1rdt397lv) Units=km Length=0.0191453 bus1=p1rdt397lv.1.2 bus2=p1rdm934.1.2 switch=n enabled=y phases=2 Linecode=1P_OH_AL_2/0_Rucina_0_416_0_2_2_2_2_2_2_2_2_2_2_2_2_2_2_2_2_2_2_2_2_2_2_2_2_2_2_2_2_2

New Line.l(r:p1rdm935-p1rlv3784) Units=km Length=0.048259 bus1=p1rdm935.1.2 bus2=p1rlv3784.1.2 switch=n enabled=y phases=2 Linecode=1P_OH_AL_4/0_Zuzara_0_416_0_2_2_2_2_2_2_2_2_2_2_2_2_2_2_2_2_2_2_2_2_2_2_2_2_2_2_2_2_2

New Line.l(r:p1rdm935-p1rdt397lv) Units=km Length=0.0191453 bus1=p1rdt397lv.1.2 bus2=p1rdm935.1.2 switch=n enabled=y phases=2 Linecode=1P_OH_AL_2/0_Rucina_0_416_0_2_2_2_2_2_2_2_2_2_2_2_2_2_2_2_2_2_2_2_2_2_2_2_2_2_2_2_2_2

New Line.l(r:p1rdt398lv-p1rlv5135) Units=km Length=0.0501486 bus1=p1rdt398lv.1.2 bus2=p1rlv5135.1.2 switch=n enabled=y phases=2 Linecode=1P_OH_AL_4/0_Zuzara_0_416_0_2_2_2_2_2_2_2_2_2_2_2_2_2_2_2_2_2_2_2_2_2_2_2_2_2_2_2_2_2

New Line.l(r:p1rdm938-p1rlv407) Units=km Length=0.023134 bus1=p1rdm938.1.2 bus2=p1rlv407.1.2 switch=n enabled=y phases=2 Linecode=1P_OH_AL_2/0_Rucina_0_416_0_2_2_2_2_2_2_2_2_2_2_2_2_2_2_2_2_2_2_2_2_2_2_2_2_2_2_2_2_2

New Line.l(r:p1rdm938-p1rdt398lv) Units=km Length=0.0137466 bus1=p1rdt398lv.1.2 bus2=p1rdm938.1.2 switch=n enabled=y phases=2 Linecode=1P_OH_AL_2/0_Rucina_0_416_0_2_2_2_2_2_2_2_2_2_2_2_2_2_2_2_2_2_2_2_2_2_2_2_2_2_2_2_2_2

New Line.l(r:p1rdm940-p1rlv408) Units=km Length=0.0476749 bus1=p1rdm940.1.2 bus2=p1rlv408.1.2 switch=n enabled=y phases=2 Linecode=1P_OH_AL_4/0_Zuzara_0_416_0_2_2_2_2_2_2_2_2_2_2_2_2_2_2_2_2_2_2_2_2_2_2_2_2_2_2_2_2_2

New Line.l(r:p1rdm940-p1rdt399lv) Units=km Length=0.0158071 bus1=p1rdt399lv.1.2 bus2=p1rdm940.1.2 switch=n enabled=y phases=2 Linecode=1P_OH_AL_2/0_Rucina_0_416_0_2_2_2_2_2_2_2_2_2_2_2_2_2_2_2_2_2_2_2_2_2_2_2_2_2_2_2_2_2

New Line.l(r:p1rdm941-p1rlv12505) Units=km Length=0.0425653 bus1=p1rdm941.1.2 bus2=p1rlv12505.1.2 switch=n enabled=y phases=2 Linecode=1P_OH_AL_4/0_Zuzara_0_416_0_2_2_2_2_2_2_2_2_2_2_2_2_2_2_2_2_2_2_2_2_2_2_2_2_2_2_2_2_2

New Line.l(r:p1rdm941-p1rdt399lv) Units=km Length=0.0158071 bus1=p1rdt399lv.1.2 bus2=p1rdm941.1.2 switch=n enabled=y phases=2 Linecode=1P_OH_AL_2/0_Rucina_0_416_0_2_2_2_2_2_2_2_2_2_2_2_2_2_2_2_2_2_2_2_2_2_2_2_2_2_2_2_2_2

New Line.l(r:p1rdt400lv-p1rlv409) Units=km Length=0.001 bus1=p1rdt400lv.1.2 bus2=p1rlv409.1.2 switch=n enabled=y phases=2 Linecode=1P_OH_AL_4_Periwinkle_0_416_0_2_2_2_2_2_2_2_2_2_2_2_2_2_2_2_2_2_2_2_2_2_2_2_2_2_2_2_2_2

New Line.l(r:p1rdt522lv-p1rlv535) Units=km Length=0.021608800000000004 bus1=p1rdt522lv.1.2 bus2=p1rlv535.1.2 switch=n enabled=y phases=2 Linecode=1P_OH_AL_2/0_Rucina_0_416_0_2_2_2_2_2_2_2_2_2_2_2_2_2_2_2_2_2_2_2_2_2_2_2_2_2_2_2_2_2

New Line.l(r:p1rdm1221-p1rlv2570) Units=km Length=0.0189275 bus1=p1rdm1221.1.2 bus2=p1rlv2570.1.2 switch=n enabled=y phases=2 Linecode=1P_OH_AL_2/0_Rucina_0_416_0_2_2_2_2_2_2_2_2_2_2_2_2_2_2_2_2_2_2_2_2_2_2_2_2_2_2_2_2_2

New Line.l(r:p1rdm1221-p1rdt522lv) Units=km Length=0.0182958 bus1=p1rdt522lv.1.2 bus2=p1rdm1221.1.2 switch=n enabled=y phases=2 Linecode=1P_OH_AL_2/0_Rucina_0_416_0_2_2_2_2_2_2_2_2_2_2_2_2_2_2_2_2_2_2_2_2_2_2_2_2_2_2_2_2_2

New Line.l(r:p1rdt523lv-p1rlv536) Units=km Length=0.0172965 bus1=p1rdt523lv.1.2 bus2=p1rlv536.1.2 switch=n enabled=y phases=2 Linecode=1P_OH_AL_2/0_Rucina_0_416_0_2_2_2_2_2_2_2_2_2_2_2_2_2_2_2_2_2_2_2_2_2_2_2_2_2_2_2_2_2

New Line.l(r:p1rdm1499-p1rlv670) Units=km Length=0.01614 bus1=p1rdm1499.1.2 bus2=p1rlv670.1.2 switch=n enabled=y phases=2 Linecode=1P_OH_AL_2/0_Rucina_0_416_0_2_2_2_2_2_2_2_2_2_2_2_2_2_2_2_2_2_2_2_2_2_2_2_2_2_2_2_2_2

New Line.l(r:p1rdm1499-p1rdt648lv) Units=km Length=0.0451369 bus1=p1rdt648lv.1.2 bus2=p1rdm1499.1.2 switch=n enabled=y phases=2 Linecode=1P_OH_AL_4/0_Zuzara_0_416_0_2_2_2_2_2_2_2_2_2_2_2_2_2_2_2_2_2_2_2_2_2_2_2_2_2_2_2_2_2

New Line.l(r:p1rdm1501-p1rlv6930) Units=km Length=0.0474187 bus1=p1rdm1501.1.2 bus2=p1rlv6930.1.2 switch=n enabled=y phases=2 Linecode=1P_OH_AL_4/0_Zuzara_0_416_0_2_2_2_2_2_2_2_2_2_2_2_2_2_2_2_2_2_2_2_2_2_2_2_2_2_2_2_2_2

New Line.l(r:p1rdm1500-p1rlv6062) Units=km Length=0.0126348 bus1=p1rdm1500.1.2 bus2=p1rlv6062.1.2 switch=n enabled=y phases=2 Linecode=1P_OH_AL_2/0_Rucina_0_416_0_2_2_2_2_2_2_2_2_2_2_2_2_2_2_2_2_2_2_2_2_2_2_2_2_2_2_2_2_2

New Line.l(r:p1rdm1500-p1rdm1501) Units=km Length=0.0123399 bus1=p1rdm1501.1.2 bus2=p1rdm1500.1.2 switch=n enabled=y phases=2 Linecode=1P_OH_AL_2/0_Rucina_0_416_0_2_2_2_2_2_2_2_2_2_2_2_2_2_2_2_2_2_2_2_2_2_2_2_2_2_2_2_2_2

New Line.l(r:p1rdm1501-p1rdt648lv) Units=km Length=0.0123348 bus1=p1rdt648lv.1.2 bus2=p1rdm1501.1.2 switch=n enabled=y phases=2 Linecode=1P_OH_AL_2/0_Rucina_0_416_0_2_2_2_2_2_2_2_2_2_2_2_2_2_2_2_2_2_2_2_2_2_2_2_2_2_2_2_2_2

New Line.l(r:p1rdt650lv-p1rlv13138) Units=km Length=0.0204863 bus1=p1rdt650lv.1.2 bus2=p1rlv13138.1.2 switch=n enabled=y phases=2 Linecode=1P_OH_AL_2/0_Rucina_0_416_0_2_2_2_2_2_2_2_2_2_2_2_2_2_2_2_2_2_2_2_2_2_2_2_2_2_2_2_2_2

New Line.l(r:p1rdm1504-p1rlv672) Units=km Length=0.04327460000000001 bus1=p1rdm1504.1.2 bus2=p1rlv672.1.2 switch=n enabled=y phases=2 Linecode=1P_OH_AL_4/0_Zuzara_0_416_0_2_2_2_2_2_2_2_2_2_2_2_2_2_2_2_2_2_2_2_2_2_2_2_2_2_2_2_2_2

New Line.l(r:p1rdm1504-p1rdt650lv) Units=km Length=0.0193768 bus1=p1rdt650lv.1.2 bus2=p1rdm1504.1.2 switch=n enabled=y phases=2 Linecode=1P_OH_AL_2/0_Rucina_0_416_0_2_2_2_2_2_2_2_2_2_2_2_2_2_2_2_2_2_2_2_2_2_2_2_2_2_2_2_2_2

New Line.l(r:p1rdt799lv-p1rlv834) Units=km Length=0.0732743 bus1=p1rdt799lv.1.2 bus2=p1rlv834.1.2 switch=n enabled=y phases=2 Linecode=1P_OH_AL_4/0_Zuzara_0_416_0_2_2_2_2_2_2_2_2_2_2_2_2_2_2_2_2_2_2_2_2_2_2_2_2_2_2_2_2_2

New Line.l(r:p1rdt799lv-p1rlv1214) Units=km Length=0.038933 bus1=p1rdt799lv.1.2 bus2=p1rlv1214.1.2 switch=n enabled=y phases=2 Linecode=1P_OH_AL_4/0_Zuzara_0_416_0_2_2_2_2_2_2_2_2_2_2_2_2_2_2_2_2_2_2_2_2_2_2_2_2_2_2_2_2_2

New Line.l(r:p1rdt799lv-p1rlv9608) Units=km Length=0.039346 bus1=p1rdt799lv.1.2 bus2=p1rlv9608.1.2 switch=n enabled=y phases=2 Linecode=1P_OH_AL_4/0_Zuzara_0_416_0_2_2_2_2_2_2_2_2_2_2_2_2_2_2_2_2_2_2_2_2_2_2_2_2_2_2_2_2_2

New Line.l(r:p1rdm1819-p1rlv2150) Units=km Length=0.0247406 bus1=p1rdm1819.1.2 bus2=p1rlv2150.1.2 switch=n enabled=y phases=2 Linecode=1P_OH_AL_2/0_Rucina_0_416_0_2_2_2_2_2_2_2_2_2_2_2_2_2_2_2_2_2_2_2_2_2_2_2_2_2_2_2_2_2

New Line.l(r:p1rdm1819-p1rdt799lv) Units=km Length=0.0405431 bus1=p1rdt799lv.1.2 bus2=p1rdm1819.1.2 switch=n enabled=y phases=2 Linecode=1P_OH_AL_4/0_Zuzara_0_416_0_2_2_2_2_2_2_2_2_2_2_2_2_2_2_2_2_2_2_2_2_2_2_2_2_2_2_2_2_2

New Line.l(r:p1rdt801lv-p1rlv836) Units=km Length=0.0128041 bus1=p1rdt801lv.1.2 bus2=p1rlv836.1.2 switch=n enabled=y phases=2 Linecode=1P_OH_AL_2/0_Rucina_0_416_0_2_2_2_2_2_2_2_2_2_2_2_2_2_2_2_2_2_2_2_2_2_2_2_2_2_2_2_2_2

New Line.l(r:p1rdt801lv-p1rlv10561) Units=km Length=0.0128041 bus1=p1rdt801lv.1.2 bus2=p1rlv10561.1.2 switch=n enabled=y phases=2 Linecode=1P_OH_AL_2/0_Rucina_0_416_0_2_2_2_2_2_2_2_2_2_2_2_2_2_2_2_2_2_2_2_2_2_2_2_2_2_2_2_2_2

New Line.l(r:p1rdt802lv-p1rlv4883) Units=km Length=0.032158200000000005 bus1=p1rdt802lv.1.2 bus2=p1rlv4883.1.2 switch=n enabled=y phases=2 Linecode=1P_UG_AL_4/0_Sweetbriar_0_416_0_2_2_2_2_2_2_2_2_2_2_2_2_2_2_2_2_2_2_2_2_2_2_2_2_2_2_2_2_2

New Line.l(r:p1rdm1824-p1rlv837) Units=km Length=0.0518193 bus1=p1rdm1824.1.2 bus2=p1rlv837.1.2 switch=n enabled=y phases=2 Linecode=1P_UG_AL_1/0_Brenau_0_416_0_2_2_2_2_2_2_2_2_2_2_2_2_2_2_2_2_2_2_2_2_2_2_2_2_2_2_2_2_2

New Line.l(r:p1rdm1824-p1rdt802lv) Units=km Length=0.0197346 bus1=p1rdt802lv.1.2 bus2=p1rdm1824.1.2 switch=n enabled=y phases=2 Linecode=1P_UG_AL_1/0_Brenau_0_416_0_2_2_2_2_2_2_2_2_2_2_2_2_2_2_2_2_2_2_2_2_2_2_2_2_2_2_2_2_2

New Line.l(r:p1rdm1826-p1rlv11522) Units=km Length=0.0573463 bus1=p1rdm1826.1.2 bus2=p1rlv11522.1.2 switch=n enabled=y phases=2 Linecode=1P_UG_AL_1/0_Brenau_0_416_0_2_2_2_2_2_2_2_2_2_2_2_2_2_2_2_2_2_2_2_2_2_2_2_2_2_2_2_2_2

New Line.l(r:p1rdm1826-p1rdt802lv) Units=km Length=0.0197443 bus1=p1rdt802lv.1.2 bus2=p1rdm1826.1.2 switch=n enabled=y phases=2 Linecode=1P_UG_AL_1/0_Brenau_0_416_0_2_2_2_2_2_2_2_2_2_2_2_2_2_2_2_2_2_2_2_2_2_2_2_2_2_2_2_2_2

New Line.l(r:p1rdt803lv-p1rlv838) Units=km Length=0.109135 bus1=p1rdt803lv.1.2 bus2=p1rlv838.1.2 switch=n enabled=y phases=2 Linecode=1P_OH_AL_4/0_Zuzara_0_416_0_2_2_2_2_2_2_2_2_2_2_2_2_2_2_2_2_2_2_2_2_2_2_2_2_2_2_2_2_2

New Line.l(r:p1rdm1828-p1rlv2709) Units=km Length=0.0815663 bus1=p1rdm1828.1.2 bus2=p1rlv2709.1.2 switch=n enabled=y phases=2 Linecode=1P_OH_AL_4/0_Zuzara_0_416_0_2_2_2_2_2_2_2_2_2_2_2_2_2_2_2_2_2_2_2_2_2_2_2_2_2_2_2_2_2

New Line.l(r:p1rdm1828-p1rdt803lv) Units=km Length=0.0173135 bus1=p1rdt803lv.1.2 bus2=p1rdm1828.1.2 switch=n enabled=y phases=2 Linecode=1P_OH_AL_2/0_Rucina_0_416_0_2_2_2_2_2_2_2_2_2_2_2_2_2_2_2_2_2_2_2_2_2_2_2_2_2_2_2_2_2

New Line.l(r:p1rdt804lv-p1rlv12381) Units=km Length=0.0591366 bus1=p1rdt804lv.1.2 bus2=p1rlv12381.1.2 switch=n enabled=y phases=2 Linecode=1P_OH_AL_4/0_Zuzara_0_416_0_2_2_2_2_2_2_2_2_2_2_2_2_2_2_2_2_2_2_2_2_2_2_2_2_2_2_2_2_2

New Line.l(r:p1rdm1829-p1rlv839) Units=km Length=0.0656093 bus1=p1rdm1829.1.2 bus2=p1rlv839.1.2 switch=n enabled=y phases=2 Linecode=1P_OH_AL_4/0_Zuzara_0_416_0_2_2_2_2_2_2_2_2_2_2_2_2_2_2_2_2_2_2_2_2_2_2_2_2_2_2_2_2_2

New Line.l(r:p1rdm1829-p1rdt804lv) Units=km Length=0.016800900000000004 bus1=p1rdt804lv.1.2 bus2=p1rdm1829.1.2 switch=n enabled=y phases=2 Linecode=1P_OH_AL_2/0_Rucina_0_416_0_2_2_2_2_2_2_2_2_2_2_2_2_2_2_2_2_2_2_2_2_2_2_2_2_2_2_2_2_2

New Line.l(r:p1rdt814lv-p1rlv850) Units=km Length=0.056175300000000004 bus1=p1rdt814lv.1.2 bus2=p1rlv850.1.2 switch=n enabled=y phases=2 Linecode=1P_OH_AL_4/0_Zuzara_0_416_0_2_2_2_2_2_2_2_2_2_2_2_2_2_2_2_2_2_2_2_2_2_2_2_2_2_2_2_2_2

New Line.l(r:p1rdm2076-p1rlv961) Units=km Length=0.0825004 bus1=p1rdm2076.1.2 bus2=p1rlv961.1.2 switch=n enabled=y phases=2 Linecode=1P_OH_AL_4/0_Zuzara_0_416_0_2_2_2_2_2_2_2_2_2_2_2_2_2_2_2_2_2_2_2_2_2_2_2_2_2_2_2_2_2

New Line.l(r:p1rdm2077-p1rlv4446) Units=km Length=0.0547862 bus1=p1rdm2077.1.2 bus2=p1rlv4446.1.2 switch=n enabled=y phases=2 Linecode=1P_OH_AL_4/0_Zuzara_0_416_0_2_2_2_2_2_2_2_2_2_2_2_2_2_2_2_2_2_2_2_2_2_2_2_2_2_2_2_2_2

New Line.l(r:p1rdm2076-p1rdm2077) Units=km Length=0.015420100000000003 bus1=p1rdm2076.1.2 bus2=p1rdm2077.1.2 switch=n enabled=y phases=2 Linecode=1P_OH_AL_2/0_Rucina_0_416_0_2_2_2_2_2_2_2_2_2_2_2_2_2_2_2_2_2_2_2_2_2_2_2_2_2_2_2_2_2

New Line.l(r:p1rdm2076-p1rdt915lv) Units=km Length=0.028981800000000002 bus1=p1rdt915lv.1.2 bus2=p1rdm2076.1.2 switch=n enabled=y phases=2 Linecode=1P_OH_AL_4/0_Zuzara_0_416_0_2_2_2_2_2_2_2_2_2_2_2_2_2_2_2_2_2_2_2_2_2_2_2_2_2_2_2_2_2

New Line.l(r:p1rdm2079-p1rlv9902) Units=km Length=0.111755 bus1=p1rdm2079.1.2 bus2=p1rlv9902.1.2 switch=n enabled=y phases=2 Linecode=1P_OH_AL_4/0_Zuzara_0_416_0_2_2_2_2_2_2_2_2_2_2_2_2_2_2_2_2_2_2_2_2_2_2_2_2_2_2_2_2_2

New Line.l(r:p1rdm2078-p1rlv7347) Units=km Length=0.0999724 bus1=p1rdm2078.1.2 bus2=p1rlv7347.1.2 switch=n enabled=y phases=2 Linecode=1P_OH_AL_4/0_Zuzara_0_416_0_2_2_2_2_2_2_2_2_2_2_2_2_2_2_2_2_2_2_2_2_2_2_2_2_2_2_2_2_2

New Line.l(r:p1rdm2078-p1rdm2079) Units=km Length=0.013561700000000001 bus1=p1rdm2079.1.2 bus2=p1rdm2078.1.2 switch=n enabled=y phases=2 Linecode=1P_OH_AL_2/0_Rucina_0_416_0_2_2_2_2_2_2_2_2_2_2_2_2_2_2_2_2_2_2_2_2_2_2_2_2_2_2_2_2_2

New Line.l(r:p1rdm2079-p1rdt915lv) Units=km Length=0.013569800000000002 bus1=p1rdt915lv.1.2 bus2=p1rdm2079.1.2 switch=n enabled=y phases=2 Linecode=1P_OH_AL_2/0_Rucina_0_416_0_2_2_2_2_2_2_2_2_2_2_2_2_2_2_2_2_2_2_2_2_2_2_2_2_2_2_2_2_2

New Line.l(r:p1rdm2113-p1rlv981) Units=km Length=0.0174824 bus1=p1rdm2113.1.2 bus2=p1rlv981.1.2 switch=n enabled=y phases=2 Linecode=1P_OH_AL_2/0_Rucina_0_416_0_2_2_2_2_2_2_2_2_2_2_2_2_2_2_2_2_2_2_2_2_2_2_2_2_2_2_2_2_2

New Line.l(r:p1rdm2113-p1rdt935lv) Units=km Length=0.0382857 bus1=p1rdt935lv.1.2 bus2=p1rdm2113.1.2 switch=n enabled=y phases=2 Linecode=1P_OH_AL_4/0_Zuzara_0_416_0_2_2_2_2_2_2_2_2_2_2_2_2_2_2_2_2_2_2_2_2_2_2_2_2_2_2_2_2_2

New Line.l(r:p1rdm2114-p1rlv6567) Units=km Length=0.0194373 bus1=p1rdm2114.1.2 bus2=p1rlv6567.1.2 switch=n enabled=y phases=2 Linecode=1P_OH_AL_2/0_Rucina_0_416_0_2_2_2_2_2_2_2_2_2_2_2_2_2_2_2_2_2_2_2_2_2_2_2_2_2_2_2_2_2

New Line.l(r:p1rdm2114-p1rdt935lv) Units=km Length=0.03587690000000001 bus1=p1rdt935lv.1.2 bus2=p1rdm2114.1.2 switch=n enabled=y phases=2 Linecode=1P_OH_AL_4/0_Zuzara_0_416_0_2_2_2_2_2_2_2_2_2_2_2_2_2_2_2_2_2_2_2_2_2_2_2_2_2_2_2_2_2

New Line.l(r:p1rdt1033lv-p1rlv1091) Units=km Length=0.022523800000000004 bus1=p1rdt1033lv.1.2 bus2=p1rlv1091.1.2 switch=n enabled=y phases=2 Linecode=1P_OH_AL_2/0_Rucina_0_416_0_2_2_2_2_2_2_2_2_2_2_2_2_2_2_2_2_2_2_2_2_2_2_2_2_2_2_2_2_2

New Line.l(r:p1rdt1034lv-p1rlv1092) Units=km Length=0.08894370000000001 bus1=p1rdt1034lv.1.2 bus2=p1rlv1092.1.2 switch=n enabled=y phases=2 Linecode=1P_OH_AL_4/0_Zuzara_0_416_0_2_2_2_2_2_2_2_2_2_2_2_2_2_2_2_2_2_2_2_2_2_2_2_2_2_2_2_2_2

New Line.l(r:p1rdm2320-p1rlv6070) Units=km Length=0.0807728 bus1=p1rdm2320.1.2 bus2=p1rlv6070.1.2 switch=n enabled=y phases=2 Linecode=1P_OH_AL_4/0_Zuzara_0_416_0_2_2_2_2_2_2_2_2_2_2_2_2_2_2_2_2_2_2_2_2_2_2_2_2_2_2_2_2_2

New Line.l(r:p1rdm2320-p1rdt1034lv) Units=km Length=0.013639400000000001 bus1=p1rdt1034lv.1.2 bus2=p1rdm2320.1.2 switch=n enabled=y phases=2 Linecode=1P_OH_AL_2/0_Rucina_0_416_0_2_2_2_2_2_2_2_2_2_2_2_2_2_2_2_2_2_2_2_2_2_2_2_2_2_2_2_2_2

New Line.l(r:p1rdt1150lv-p1rlv1217) Units=km Length=0.001 bus1=p1rdt1150lv.1.2 bus2=p1rlv1217.1.2 switch=n enabled=y phases=2 Linecode=1P_OH_AL_4_Periwinkle_0_416_0_2_2_2_2_2_2_2_2_2_2_2_2_2_2_2_2_2_2_2_2_2_2_2_2_2_2_2_2_2

New Line.l(r:p1rdt1151lv-p1rlv1218) Units=km Length=0.019721100000000002 bus1=p1rdt1151lv.1.2 bus2=p1rlv1218.1.2 switch=n enabled=y phases=2 Linecode=1P_OH_AL_2/0_Rucina_0_416_0_2_2_2_2_2_2_2_2_2_2_2_2_2_2_2_2_2_2_2_2_2_2_2_2_2_2_2_2_2

New Line.l(r:p1rdt1151lv-p1rlv12503) Units=km Length=0.0227672 bus1=p1rdt1151lv.1.2 bus2=p1rlv12503.1.2 switch=n enabled=y phases=2 Linecode=1P_OH_AL_2/0_Rucina_0_416_0_2_2_2_2_2_2_2_2_2_2_2_2_2_2_2_2_2_2_2_2_2_2_2_2_2_2_2_2_2

New Line.l(r:p1rdm2557-p1rlv9215) Units=km Length=0.0269133 bus1=p1rdm2557.1.2 bus2=p1rlv9215.1.2 switch=n enabled=y phases=2 Linecode=1P_OH_AL_2/0_Rucina_0_416_0_2_2_2_2_2_2_2_2_2_2_2_2_2_2_2_2_2_2_2_2_2_2_2_2_2_2_2_2_2

New Line.l(r:p1rdm2557-p1rdt1151lv) Units=km Length=0.0146332 bus1=p1rdt1151lv.1.2 bus2=p1rdm2557.1.2 switch=n enabled=y phases=2 Linecode=1P_OH_AL_2/0_Rucina_0_416_0_2_2_2_2_2_2_2_2_2_2_2_2_2_2_2_2_2_2_2_2_2_2_2_2_2_2_2_2_2

New Line.l(r:p1rdm2558-p1rlv11396) Units=km Length=0.026450000000000005 bus1=p1rdm2558.1.2 bus2=p1rlv11396.1.2 switch=n enabled=y phases=2 Linecode=1P_OH_AL_2/0_Rucina_0_416_0_2_2_2_2_2_2_2_2_2_2_2_2_2_2_2_2_2_2_2_2_2_2_2_2_2_2_2_2_2

New Line.l(r:p1rdm2558-p1rdt1151lv) Units=km Length=0.0746127 bus1=p1rdt1151lv.1.2 bus2=p1rdm2558.1.2 switch=n enabled=y phases=2 Linecode=1P_OH_AL_4/0_Zuzara_0_416_0_2_2_2_2_2_2_2_2_2_2_2_2_2_2_2_2_2_2_2_2_2_2_2_2_2_2_2_2_2

New Line.l(r:p1rdt1152lv-p1rlv1219) Units=km Length=0.0423618 bus1=p1rdt1152lv.1.2 bus2=p1rlv1219.1.2 switch=n enabled=y phases=2 Linecode=1P_OH_AL_4/0_Zuzara_0_416_0_2_2_2_2_2_2_2_2_2_2_2_2_2_2_2_2_2_2_2_2_2_2_2_2_2_2_2_2_2

New Line.l(r:p1rdt1152lv-p1rlv2030) Units=km Length=0.0423618 bus1=p1rdt1152lv.1.2 bus2=p1rlv2030.1.2 switch=n enabled=y phases=2 Linecode=1P_OH_AL_4/0_Zuzara_0_416_0_2_2_2_2_2_2_2_2_2_2_2_2_2_2_2_2_2_2_2_2_2_2_2_2_2_2_2_2_2

New Line.l(r:p1rdt1270lv-p1rlv1351) Units=km Length=0.001 bus1=p1rdt1270lv.1.2 bus2=p1rlv1351.1.2 switch=n enabled=y phases=2 Linecode=1P_OH_AL_4_Periwinkle_0_416_0_2_2_2_2_2_2_2_2_2_2_2_2_2_2_2_2_2_2_2_2_2_2_2_2_2_2_2_2_2

New Line.l(r:p1rdt1271lv-p1rlv1352) Units=km Length=0.072986 bus1=p1rdt1271lv.1.2 bus2=p1rlv1352.1.2 switch=n enabled=y phases=2 Linecode=1P_OH_AL_4/0_Zuzara_0_416_0_2_2_2_2_2_2_2_2_2_2_2_2_2_2_2_2_2_2_2_2_2_2_2_2_2_2_2_2_2

New Line.l(r:p1rdt1271lv-p1rlv7641) Units=km Length=0.0700087 bus1=p1rdt1271lv.1.2 bus2=p1rlv7641.1.2 switch=n enabled=y phases=2 Linecode=1P_OH_AL_4/0_Zuzara_0_416_0_2_2_2_2_2_2_2_2_2_2_2_2_2_2_2_2_2_2_2_2_2_2_2_2_2_2_2_2_2

New Line.l(r:p1rdt1272lv-p1rlv13789) Units=km Length=0.0318101 bus1=p1rdt1272lv.1.2 bus2=p1rlv13789.1.2 switch=n enabled=y phases=2 Linecode=1P_OH_AL_4/0_Zuzara_0_416_0_2_2_2_2_2_2_2_2_2_2_2_2_2_2_2_2_2_2_2_2_2_2_2_2_2_2_2_2_2

New Line.l(r:p1rdm2824-p1rlv1353) Units=km Length=0.0404066 bus1=p1rdm2824.1.2 bus2=p1rlv1353.1.2 switch=n enabled=y phases=2 Linecode=1P_OH_AL_4/0_Zuzara_0_416_0_2_2_2_2_2_2_2_2_2_2_2_2_2_2_2_2_2_2_2_2_2_2_2_2_2_2_2_2_2

New Line.l(r:p1rdm2824-p1rdt1272lv) Units=km Length=0.0190434 bus1=p1rdt1272lv.1.2 bus2=p1rdm2824.1.2 switch=n enabled=y phases=2 Linecode=1P_OH_AL_2/0_Rucina_0_416_0_2_2_2_2_2_2_2_2_2_2_2_2_2_2_2_2_2_2_2_2_2_2_2_2_2_2_2_2_2

New Line.l(r:p1rdt1396lv-p1rlv1498) Units=km Length=0.0645376 bus1=p1rdt1396lv.1.2 bus2=p1rlv1498.1.2 switch=n enabled=y phases=2 Linecode=1P_OH_AL_4/0_Zuzara_0_416_0_2_2_2_2_2_2_2_2_2_2_2_2_2_2_2_2_2_2_2_2_2_2_2_2_2_2_2_2_2

New Line.l(r:p1rdt1396lv-p1rlv9341) Units=km Length=0.0516067 bus1=p1rdt1396lv.1.2 bus2=p1rlv9341.1.2 switch=n enabled=y phases=2 Linecode=1P_OH_AL_4/0_Zuzara_0_416_0_2_2_2_2_2_2_2_2_2_2_2_2_2_2_2_2_2_2_2_2_2_2_2_2_2_2_2_2_2

New Line.l(r:p1rdm3071-p1rlv10159) Units=km Length=0.0583301 bus1=p1rdm3071.1.2 bus2=p1rlv10159.1.2 switch=n enabled=y phases=2 Linecode=1P_OH_AL_4/0_Zuzara_0_416_0_2_2_2_2_2_2_2_2_2_2_2_2_2_2_2_2_2_2_2_2_2_2_2_2_2_2_2_2_2

New Line.l(r:p1rdm3071-p1rdt1396lv) Units=km Length=0.0340018 bus1=p1rdt1396lv.1.2 bus2=p1rdm3071.1.2 switch=n enabled=y phases=2 Linecode=1P_OH_AL_4/0_Zuzara_0_416_0_2_2_2_2_2_2_2_2_2_2_2_2_2_2_2_2_2_2_2_2_2_2_2_2_2_2_2_2_2

New Line.l(r:p1rdm3072-p1rlv1499) Units=km Length=0.009357210000000001 bus1=p1rdm3072.1.2 bus2=p1rlv1499.1.2 switch=n enabled=y phases=2 Linecode=1P_OH_AL_2/0_Rucina_0_416_0_2_2_2_2_2_2_2_2_2_2_2_2_2_2_2_2_2_2_2_2_2_2_2_2_2_2_2_2_2

New Line.l(r:p1rdm3072-p1rdt1397lv) Units=km Length=0.0604857 bus1=p1rdt1397lv.1.2 bus2=p1rdm3072.1.2 switch=n enabled=y phases=2 Linecode=1P_OH_AL_4/0_Zuzara_0_416_0_2_2_2_2_2_2_2_2_2_2_2_2_2_2_2_2_2_2_2_2_2_2_2_2_2_2_2_2_2

New Line.l(r:p1rdm3073-p1rlv10983) Units=km Length=0.00392689 bus1=p1rdm3073.1.2 bus2=p1rlv10983.1.2 switch=n enabled=y phases=2 Linecode=1P_OH_AL_4_Periwinkle_0_416_0_2_2_2_2_2_2_2_2_2_2_2_2_2_2_2_2_2_2_2_2_2_2_2_2_2_2_2_2_2

New Line.l(r:p1rdm3073-p1rdt1397lv) Units=km Length=0.0524384 bus1=p1rdt1397lv.1.2 bus2=p1rdm3073.1.2 switch=n enabled=y phases=2 Linecode=1P_OH_AL_4/0_Zuzara_0_416_0_2_2_2_2_2_2_2_2_2_2_2_2_2_2_2_2_2_2_2_2_2_2_2_2_2_2_2_2_2

New Line.l(r:p1rdt1398lv-p1rlv1500) Units=km Length=0.06933670000000001 bus1=p1rdt1398lv.1.2 bus2=p1rlv1500.1.2 switch=n enabled=y phases=2 Linecode=1P_OH_AL_4/0_Zuzara_0_416_0_2_2_2_2_2_2_2_2_2_2_2_2_2_2_2_2_2_2_2_2_2_2_2_2_2_2_2_2_2

New Line.l(r:p1rdt1508lv-p1rlv1627) Units=km Length=0.0434234 bus1=p1rdt1508lv.1.2 bus2=p1rlv1627.1.2 switch=n enabled=y phases=2 Linecode=1P_OH_AL_4/0_Zuzara_0_416_0_2_2_2_2_2_2_2_2_2_2_2_2_2_2_2_2_2_2_2_2_2_2_2_2_2_2_2_2_2

New Line.l(r:p1rdm3545-p1rlv2571) Units=km Length=0.024073 bus1=p1rdm3545.1.2 bus2=p1rlv2571.1.2 switch=n enabled=y phases=2 Linecode=1P_OH_AL_2/0_Rucina_0_416_0_2_2_2_2_2_2_2_2_2_2_2_2_2_2_2_2_2_2_2_2_2_2_2_2_2_2_2_2_2

New Line.l(r:p1rdm3548-p1rlv6435) Units=km Length=0.0217944 bus1=p1rdm3548.1.2 bus2=p1rlv6435.1.2 switch=n enabled=y phases=2 Linecode=1P_OH_AL_2/0_Rucina_0_416_0_2_2_2_2_2_2_2_2_2_2_2_2_2_2_2_2_2_2_2_2_2_2_2_2_2_2_2_2_2

New Line.l(r:p1rdm3545-p1rdm3548) Units=km Length=0.0272368 bus1=p1rdm3545.1.2 bus2=p1rdm3548.1.2 switch=n enabled=y phases=2 Linecode=1P_OH_AL_4/0_Zuzara_0_416_0_2_2_2_2_2_2_2_2_2_2_2_2_2_2_2_2_2_2_2_2_2_2_2_2_2_2_2_2_2

New Line.l(r:p1rdm3545-p1rdt1611lv) Units=km Length=0.0282508 bus1=p1rdt1611lv.1.2 bus2=p1rdm3545.1.2 switch=n enabled=y phases=2 Linecode=1P_OH_AL_4/0_Zuzara_0_416_0_2_2_2_2_2_2_2_2_2_2_2_2_2_2_2_2_2_2_2_2_2_2_2_2_2_2_2_2_2

New Line.l(r:p1rdm3546-p1rlv5134)_s0 Units=km Length=0.001 bus1=p1rdm3546.1.2 bus2=p1rdm3546-p1rlv5134x.1.2 switch=n enabled=y phases=2 Linecode=1P_OH_AL_4_Periwinkle_0_416_0_2_2_2_2_2_2_2_2_2_2_2_2_2_2_2_2_2_2_2_2_2_2_2_2_2_2_2_2_2

New Line.l(r:p1rdm3546-p1rlv5134)_s1 Units=km Length=0.001 bus1=p1rdm3546-p1rlv5134x.1.2 bus2=p1rdm3546-p1rlv5134xx.1.2 switch=n enabled=y phases=2 Linecode=1P_OH_AL_4_Periwinkle_0_416_0_2_2_2_2_2_2_2_2_2_2_2_2_2_2_2_2_2_2_2_2_2_2_2_2_2_2_2_2_2

New Line.l(r:p1rdm3546-p1rlv5134)_s2 Units=km Length=0.0278513 bus1=p1rdm3546-p1rlv5134xx.1.2 bus2=p1rlv5134.1.2 switch=n enabled=y phases=2 Linecode=1P_OH_AL_4/0_Zuzara_0_416_0_2_2_2_2_2_2_2_2_2_2_2_2_2_2_2_2_2_2_2_2_2_2_2_2_2_2_2_2_2

New Line.l(r:p1rdm3544-p1rlv1750) Units=km Length=0.0218933 bus1=p1rdm3544.1.2 bus2=p1rlv1750.1.2 switch=n enabled=y phases=2 Linecode=1P_OH_AL_2/0_Rucina_0_416_0_2_2_2_2_2_2_2_2_2_2_2_2_2_2_2_2_2_2_2_2_2_2_2_2_2_2_2_2_2

New Line.l(r:p1rdm3544-p1rlv6187) Units=km Length=0.0183972 bus1=p1rdm3544.1.2 bus2=p1rlv6187.1.2 switch=n enabled=y phases=2 Linecode=1P_OH_AL_2/0_Rucina_0_416_0_2_2_2_2_2_2_2_2_2_2_2_2_2_2_2_2_2_2_2_2_2_2_2_2_2_2_2_2_2

New Line.l(r:p1rdm3544-p1rdm3546)_s0 Units=km Length=0.001 bus1=p1rdm3546.1.2 bus2=p1rdm3544-p1rdm3546xx.1.2 switch=n enabled=y phases=2 Linecode=1P_OH_AL_4_Periwinkle_0_416_0_2_2_2_2_2_2_2_2_2_2_2_2_2_2_2_2_2_2_2_2_2_2_2_2_2_2_2_2_2

New Line.l(r:p1rdm3544-p1rdm3546)_s1 Units=km Length=0.001 bus1=p1rdm3544-p1rdm3546xx.1.2 bus2=p1rdm3544-p1rdm3546x.1.2 switch=n enabled=y phases=2 Linecode=1P_OH_AL_4_Periwinkle_0_416_0_2_2_2_2_2_2_2_2_2_2_2_2_2_2_2_2_2_2_2_2_2_2_2_2_2_2_2_2_2

New Line.l(r:p1rdm3544-p1rdm3546)_s2 Units=km Length=0.017027300000000002 bus1=p1rdm3544-p1rdm3546x.1.2 bus2=p1rdm3544.1.2 switch=n enabled=y phases=2 Linecode=1P_OH_AL_2/0_Rucina_0_416_0_2_2_2_2_2_2_2_2_2_2_2_2_2_2_2_2_2_2_2_2_2_2_2_2_2_2_2_2_2

New Line.l(r:p1rdm3546-p1rdt1611lv) Units=km Length=0.0225709 bus1=p1rdt1611lv.1.2 bus2=p1rdm3546.1.2 switch=n enabled=y phases=2 Linecode=1P_OH_AL_2/0_Rucina_0_416_0_2_2_2_2_2_2_2_2_2_2_2_2_2_2_2_2_2_2_2_2_2_2_2_2_2_2_2_2_2

New Line.l(r:p1rdt1718lv-p1rlv1880) Units=km Length=0.0599004 bus1=p1rdt1718lv.1.2 bus2=p1rlv1880.1.2 switch=n enabled=y phases=2 Linecode=1P_OH_AL_4/0_Zuzara_0_416_0_2_2_2_2_2_2_2_2_2_2_2_2_2_2_2_2_2_2_2_2_2_2_2_2_2_2_2_2_2

New Line.l(r:p1rdm3755-p1rlv9477) Units=km Length=0.0360874 bus1=p1rdm3755.1.2 bus2=p1rlv9477.1.2 switch=n enabled=y phases=2 Linecode=1P_OH_AL_4/0_Zuzara_0_416_0_2_2_2_2_2_2_2_2_2_2_2_2_2_2_2_2_2_2_2_2_2_2_2_2_2_2_2_2_2

New Line.l(r:p1rdm3755-p1rdt1718lv) Units=km Length=0.0191453 bus1=p1rdt1718lv.1.2 bus2=p1rdm3755.1.2 switch=n enabled=y phases=2 Linecode=1P_OH_AL_2/0_Rucina_0_416_0_2_2_2_2_2_2_2_2_2_2_2_2_2_2_2_2_2_2_2_2_2_2_2_2_2_2_2_2_2

New Line.l(r:p1rdm3756-p1rlv12754) Units=km Length=0.05235830000000001 bus1=p1rdm3756.1.2 bus2=p1rlv12754.1.2 switch=n enabled=y phases=2 Linecode=1P_OH_AL_4/0_Zuzara_0_416_0_2_2_2_2_2_2_2_2_2_2_2_2_2_2_2_2_2_2_2_2_2_2_2_2_2_2_2_2_2

New Line.l(r:p1rdm3756-p1rdt1718lv) Units=km Length=0.019145 bus1=p1rdt1718lv.1.2 bus2=p1rdm3756.1.2 switch=n enabled=y phases=2 Linecode=1P_OH_AL_2/0_Rucina_0_416_0_2_2_2_2_2_2_2_2_2_2_2_2_2_2_2_2_2_2_2_2_2_2_2_2_2_2_2_2_2

New Line.l(r:p1rdm3757-p1rlv1881) Units=km Length=0.0300241 bus1=p1rdm3757.1.2 bus2=p1rlv1881.1.2 switch=n enabled=y phases=2 Linecode=1P_OH_AL_4/0_Zuzara_0_416_0_2_2_2_2_2_2_2_2_2_2_2_2_2_2_2_2_2_2_2_2_2_2_2_2_2_2_2_2_2

New Line.l(r:p1rdm3757-p1rdt1719lv) Units=km Length=0.0198472 bus1=p1rdt1719lv.1.2 bus2=p1rdm3757.1.2 switch=n enabled=y phases=2 Linecode=1P_OH_AL_2/0_Rucina_0_416_0_2_2_2_2_2_2_2_2_2_2_2_2_2_2_2_2_2_2_2_2_2_2_2_2_2_2_2_2_2

New Line.l(r:p1rdm3758-p1rlv10706) Units=km Length=0.0459507 bus1=p1rdm3758.1.2 bus2=p1rlv10706.1.2 switch=n enabled=y phases=2 Linecode=1P_OH_AL_4/0_Zuzara_0_416_0_2_2_2_2_2_2_2_2_2_2_2_2_2_2_2_2_2_2_2_2_2_2_2_2_2_2_2_2_2

New Line.l(r:p1rdm3758-p1rdt1719lv) Units=km Length=0.0198472 bus1=p1rdt1719lv.1.2 bus2=p1rdm3758.1.2 switch=n enabled=y phases=2 Linecode=1P_OH_AL_2/0_Rucina_0_416_0_2_2_2_2_2_2_2_2_2_2_2_2_2_2_2_2_2_2_2_2_2_2_2_2_2_2_2_2_2
