New Load.load_p1rlv17 conn=wye bus1=p1rlv17.1.2 kV=0.2080002494301389 Vminpu=0.8 Vmaxpu=1.2 model=1 kW=5.600060000000001 kvar=1.1400675357543906 Phases=2

New Load.load_p1rlv18 conn=wye bus1=p1rlv18.1.2 kV=0.2080002494301389 Vminpu=0.8 Vmaxpu=1.2 model=1 kW=4.94005 kvar=1.0005321664784275 Phases=2

New Load.load_p1rlv137 conn=wye bus1=p1rlv137.1.2 kV=0.2080002494301389 Vminpu=0.8 Vmaxpu=1.2 model=1 kW=5.57006 kvar=1.131048923251042 Phases=2

New Load.load_p1rlv138 conn=wye bus1=p1rlv138.1.2 kV=0.2080002494301389 Vminpu=0.8 Vmaxpu=1.2 model=1 kW=6.44006 kvar=1.3110758338857833 Phases=2

New Load.load_p1rlv283 conn=wye bus1=p1rlv283.1.2 kV=0.2080002494301389 Vminpu=0.8 Vmaxpu=1.2 model=1 kW=5.12005 kvar=1.0396704953791336 Phases=2

New Load.load_p1rlv284 conn=wye bus1=p1rlv284.1.2 kV=0.2080002494301389 Vminpu=0.8 Vmaxpu=1.2 model=1 kW=5.47005 kvar=1.110741026601035 Phases=2

New Load.load_p1rlv285 conn=wye bus1=p1rlv285.1.2 kV=0.2080002494301389 Vminpu=0.8 Vmaxpu=1.2 model=1 kW=5.40005 kvar=1.0993492384814623 Phases=2

New Load.load_p1rlv296 conn=wye bus1=p1rlv296.1.2 kV=0.2080002494301389 Vminpu=0.8 Vmaxpu=1.2 model=1 kW=9.32009 kvar=1.8876428051282732 Phases=2

New Load.load_p1rlv406 conn=wye bus1=p1rlv406.1.2 kV=0.2080002494301389 Vminpu=0.8 Vmaxpu=1.2 model=1 kW=6.29006 kvar=1.280538637790892 Phases=2

New Load.load_p1rlv407 conn=wye bus1=p1rlv407.1.2 kV=0.2080002494301389 Vminpu=0.8 Vmaxpu=1.2 model=1 kW=1.29001 kvar=0.4198715805341411 Phases=2

New Load.load_p1rlv408 conn=wye bus1=p1rlv408.1.2 kV=0.2080002494301389 Vminpu=0.8 Vmaxpu=1.2 model=1 kW=8.58009 kvar=2.820139204004112 Phases=2

New Load.load_p1rlv409 conn=wye bus1=p1rlv409.1.2 kV=0.2080002494301389 Vminpu=0.8 Vmaxpu=1.2 model=1 kW=4.81005 kvar=0.9792362671748885 Phases=2

New Load.load_p1rlv535 conn=wye bus1=p1rlv535.1.2 kV=0.2080002494301389 Vminpu=0.8 Vmaxpu=1.2 model=1 kW=6.44006 kvar=2.1190297717394317 Phases=2

New Load.load_p1rlv536 conn=wye bus1=p1rlv536.1.2 kV=0.2080002494301389 Vminpu=0.8 Vmaxpu=1.2 model=1 kW=8.230080000000001 kvar=2.710932993017364 Phases=2

New Load.load_p1rlv670 conn=wye bus1=p1rlv670.1.2 kV=0.2080002494301389 Vminpu=0.8 Vmaxpu=1.2 model=1 kW=8.05008 kvar=1.6388458102637655 Phases=2

New Load.load_p1rlv672 conn=wye bus1=p1rlv672.1.2 kV=0.2080002494301389 Vminpu=0.8 Vmaxpu=1.2 model=1 kW=5.61006 kvar=1.1391712696764018 Phases=2

New Load.load_p1rlv686 conn=wye bus1=p1rlv686.1.2.3 kV=0.48 Vminpu=0.8 Vmaxpu=1.2 model=1 kW=64.6706 kvar=13.131925418397438 Phases=3

New Load.load_p1rlv834 conn=wye bus1=p1rlv834.1.2 kV=0.2080002494301389 Vminpu=0.8 Vmaxpu=1.2 model=1 kW=5.27005 kvar=1.0701292944742342 Phases=2

New Load.load_p1rlv836 conn=wye bus1=p1rlv836.1.2 kV=0.2080002494301389 Vminpu=0.8 Vmaxpu=1.2 model=1 kW=3.42003 kvar=0.6908795546178332 Phases=2

New Load.load_p1rlv837 conn=wye bus1=p1rlv837.1.2 kV=0.2080002494301389 Vminpu=0.8 Vmaxpu=1.2 model=1 kW=4.83005 kvar=1.5892739739986963 Phases=2

New Load.load_p1rlv838 conn=wye bus1=p1rlv838.1.2 kV=0.2080002494301389 Vminpu=0.8 Vmaxpu=1.2 model=1 kW=5.20005 kvar=1.061344635376904 Phases=2

New Load.load_p1rlv839 conn=wye bus1=p1rlv839.1.2 kV=0.2080002494301389 Vminpu=0.8 Vmaxpu=1.2 model=1 kW=18.8402 kvar=6.192474278390818 Phases=2

New Load.load_p1rlv850 conn=wye bus1=p1rlv850.1.2 kV=0.2080002494301389 Vminpu=0.8 Vmaxpu=1.2 model=1 kW=2.79003 kvar=0.569452865461029 Phases=2

New Load.load_p1rlv961 conn=wye bus1=p1rlv961.1.2 kV=0.2080002494301389 Vminpu=0.8 Vmaxpu=1.2 model=1 kW=5.520060000000001 kvar=1.1208959902193418 Phases=2

New Load.load_p1rlv969 conn=wye bus1=p1rlv969.1.2.3 kV=0.48 Vminpu=0.8 Vmaxpu=1.2 model=1 kW=52.38049999999999 kvar=10.63631417333946 Phases=3

New Load.load_p1rlv980 conn=wye bus1=p1rlv980.1.2.3 kV=0.48 Vminpu=0.8 Vmaxpu=1.2 model=1 kW=53.4505 kvar=17.56832976386282 Phases=3

New Load.load_p1rlv981 conn=wye bus1=p1rlv981.1.2 kV=0.2080002494301389 Vminpu=0.8 Vmaxpu=1.2 model=1 kW=6.05006 kvar=1.2285170803553642 Phases=2

New Load.load_p1rlv1091 conn=wye bus1=p1rlv1091.1.2 kV=0.2080002494301389 Vminpu=0.8 Vmaxpu=1.2 model=1 kW=4.36004 kvar=0.8807707807580453 Phases=2

New Load.load_p1rlv1092 conn=wye bus1=p1rlv1092.1.2 kV=0.2080002494301389 Vminpu=0.8 Vmaxpu=1.2 model=1 kW=6.43006 kvar=1.3090400208127908 Phases=2

New Load.load_p1rlv1214 conn=wye bus1=p1rlv1214.1.2 kV=0.2080002494301389 Vminpu=0.8 Vmaxpu=1.2 model=1 kW=5.31005 kvar=1.0810269208245273 Phases=2

New Load.load_p1rlv1217 conn=wye bus1=p1rlv1217.1.2 kV=0.2080002494301389 Vminpu=0.8 Vmaxpu=1.2 model=1 kW=8.53009 kvar=1.7321086504875136 Phases=2

New Load.load_p1rlv1218 conn=wye bus1=p1rlv1218.1.2 kV=0.2080002494301389 Vminpu=0.8 Vmaxpu=1.2 model=1 kW=1.25001 kvar=0.40997059545635767 Phases=2

New Load.load_p1rlv1219 conn=wye bus1=p1rlv1219.1.2 kV=0.2080002494301389 Vminpu=0.8 Vmaxpu=1.2 model=1 kW=5.39005 kvar=1.088842888327837 Phases=2

New Load.load_p1rlv1351 conn=wye bus1=p1rlv1351.1.2 kV=0.2080002494301389 Vminpu=0.8 Vmaxpu=1.2 model=1 kW=3.6900400000000007 kvar=0.7492945800859013 Phases=2

New Load.load_p1rlv1352 conn=wye bus1=p1rlv1352.1.2 kV=0.2080002494301389 Vminpu=0.8 Vmaxpu=1.2 model=1 kW=6.51007 kvar=1.3185158937715642 Phases=2

New Load.load_p1rlv1353 conn=wye bus1=p1rlv1353.1.2 kV=0.2080002494301389 Vminpu=0.8 Vmaxpu=1.2 model=1 kW=4.09004 kvar=0.8305180443395029 Phases=2

New Load.load_p1rlv1498 conn=wye bus1=p1rlv1498.1.2 kV=0.2080002494301389 Vminpu=0.8 Vmaxpu=1.2 model=1 kW=5.88006 kvar=1.1909169281329426 Phases=2

New Load.load_p1rlv1499 conn=wye bus1=p1rlv1499.1.2 kV=0.2080002494301389 Vminpu=0.8 Vmaxpu=1.2 model=1 kW=4.94005 kvar=1.0005321664784275 Phases=2

New Load.load_p1rlv1500 conn=wye bus1=p1rlv1500.1.2 kV=0.2080002494301389 Vminpu=0.8 Vmaxpu=1.2 model=1 kW=2.92003 kvar=0.5898746577868357 Phases=2

New Load.load_p1rlv1501 conn=wye bus1=p1rlv1501.1.2.3 kV=0.48 Vminpu=0.8 Vmaxpu=1.2 model=1 kW=31.9103 kvar=6.479662778429268 Phases=3

New Load.load_p1rlv1626 conn=wye bus1=p1rlv1626.1.2.3 kV=0.48 Vminpu=0.8 Vmaxpu=1.2 model=1 kW=54.68050000000001 kvar=17.972611213232828 Phases=3

New Load.load_p1rlv1627 conn=wye bus1=p1rlv1627.1.2 kV=0.2080002494301389 Vminpu=0.8 Vmaxpu=1.2 model=1 kW=2.23002 kvar=0.45048588006212237 Phases=2

New Load.load_p1rlv1750 conn=wye bus1=p1rlv1750.1.2 kV=0.2080002494301389 Vminpu=0.8 Vmaxpu=1.2 model=1 kW=5.83006 kvar=1.180790186840056 Phases=2

New Load.load_p1rlv1880 conn=wye bus1=p1rlv1880.1.2 kV=0.2080002494301389 Vminpu=0.8 Vmaxpu=1.2 model=1 kW=6.15006 kvar=1.2488229464187643 Phases=2

New Load.load_p1rlv1881 conn=wye bus1=p1rlv1881.1.2 kV=0.2080002494301389 Vminpu=0.8 Vmaxpu=1.2 model=1 kW=5.420050000000001 kvar=1.1005880935693348 Phases=2

New Load.load_p1rlv1882 conn=wye bus1=p1rlv1882.1.2 kV=0.2080002494301389 Vminpu=0.8 Vmaxpu=1.2 model=1 kW=5.40005 kvar=1.0993492384814623 Phases=2

New Load.load_p1rlv2030 conn=wye bus1=p1rlv2030.1.2 kV=0.2080002494301389 Vminpu=0.8 Vmaxpu=1.2 model=1 kW=5.15005 kvar=1.0511394966246144 Phases=2

New Load.load_p1rlv2031 conn=wye bus1=p1rlv2031.1.2 kV=0.2080002494301389 Vminpu=0.8 Vmaxpu=1.2 model=1 kW=2.88003 kvar=0.5802786818127376 Phases=2

New Load.load_p1rlv2041 conn=wye bus1=p1rlv2041.1.2 kV=0.2080002494301389 Vminpu=0.8 Vmaxpu=1.2 model=1 kW=4.450040000000001 kvar=0.898951662187625 Phases=2

New Load.load_p1rlv2150 conn=wye bus1=p1rlv2150.1.2 kV=0.2080002494301389 Vminpu=0.8 Vmaxpu=1.2 model=1 kW=6.71007 kvar=1.3590228589431081 Phases=2

New Load.load_p1rlv2157 conn=wye bus1=p1rlv2157.1.2 kV=0.2080002494301389 Vminpu=0.8 Vmaxpu=1.2 model=1 kW=7.9200800000000005 kvar=1.6082408369141645 Phases=2

New Load.load_p1rlv2158 conn=wye bus1=p1rlv2158.1.2 kV=0.2080002494301389 Vminpu=0.8 Vmaxpu=1.2 model=1 kW=7.81008 kvar=1.5899862965119393 Phases=2

New Load.load_p1rlv2159 conn=wye bus1=p1rlv2159.1.2 kV=0.2080002494301389 Vminpu=0.8 Vmaxpu=1.2 model=1 kW=5.33005 kvar=1.0795207485629381 Phases=2

New Load.load_p1rlv2173 conn=wye bus1=p1rlv2173.1.2 kV=0.2080002494301389 Vminpu=0.8 Vmaxpu=1.2 model=1 kW=5.94006 kvar=1.2092851802361448 Phases=2

New Load.load_p1rlv2174 conn=wye bus1=p1rlv2174.1.2 kV=0.2080002494301389 Vminpu=0.8 Vmaxpu=1.2 model=1 kW=8.28008 kvar=1.6813419547424064 Phases=2

New Load.load_p1rlv2306 conn=wye bus1=p1rlv2306.1.2 kV=0.2080002494301389 Vminpu=0.8 Vmaxpu=1.2 model=1 kW=7.09007 kvar=1.4397001180013347 Phases=2

New Load.load_p1rlv2307 conn=wye bus1=p1rlv2307.1.2 kV=0.2080002494301389 Vminpu=0.8 Vmaxpu=1.2 model=1 kW=2.60003 kvar=0.5306733382023273 Phases=2

New Load.load_p1rlv2308 conn=wye bus1=p1rlv2308.1.2 kV=0.2080002494301389 Vminpu=0.8 Vmaxpu=1.2 model=1 kW=1.57002 kvar=0.5199301771777152 Phases=2

New Load.load_p1rlv2309 conn=wye bus1=p1rlv2309.1.2 kV=0.2080002494301389 Vminpu=0.8 Vmaxpu=1.2 model=1 kW=0.410004 kvar=0.1399303127844176 Phases=2

New Load.load_p1rlv2310 conn=wye bus1=p1rlv2310.1.2 kV=0.2080002494301389 Vminpu=0.8 Vmaxpu=1.2 model=1 kW=10.5401 kvar=2.1402585889484684 Phases=2

New Load.load_p1rlv2324 conn=wye bus1=p1rlv2324.1.2 kV=0.2080002494301389 Vminpu=0.8 Vmaxpu=1.2 model=1 kW=16.9802 kvar=3.4479766692975202 Phases=2

New Load.load_p1rlv2325 conn=wye bus1=p1rlv2325.1.2 kV=0.2080002494301389 Vminpu=0.8 Vmaxpu=1.2 model=1 kW=7.73008 kvar=1.5696596913937038 Phases=2

New Load.load_p1rlv2446 conn=wye bus1=p1rlv2446.1.2 kV=0.2080002494301389 Vminpu=0.8 Vmaxpu=1.2 model=1 kW=3.34003 kvar=1.1001834155521923 Phases=2

New Load.load_p1rlv2447 conn=wye bus1=p1rlv2447.1.2 kV=0.2080002494301389 Vminpu=0.8 Vmaxpu=1.2 model=1 kW=6.64007 kvar=1.3483237207160328 Phases=2

New Load.load_p1rlv2557 conn=wye bus1=p1rlv2557.1.2 kV=0.2080002494301389 Vminpu=0.8 Vmaxpu=1.2 model=1 kW=7.5000800000000005 kvar=1.5190273967189654 Phases=2

New Load.load_p1rlv2570 conn=wye bus1=p1rlv2570.1.2 kV=0.2080002494301389 Vminpu=0.8 Vmaxpu=1.2 model=1 kW=4.34004 kvar=1.4295799830639653 Phases=2

New Load.load_p1rlv2571 conn=wye bus1=p1rlv2571.1.2 kV=0.2080002494301389 Vminpu=0.8 Vmaxpu=1.2 model=1 kW=6.46006 kvar=1.30838712713042 Phases=2

New Load.load_p1rlv2588 conn=wye bus1=p1rlv2588.1.2 kV=0.2080002494301389 Vminpu=0.8 Vmaxpu=1.2 model=1 kW=7.200070000000001 kvar=1.4582649236133909 Phases=2

New Load.load_p1rlv2706 conn=wye bus1=p1rlv2706.1.2 kV=0.2080002494301389 Vminpu=0.8 Vmaxpu=1.2 model=1 kW=4.86005 kvar=0.9894153325398525 Phases=2

New Load.load_p1rlv2707 conn=wye bus1=p1rlv2707.1.2 kV=0.2080002494301389 Vminpu=0.8 Vmaxpu=1.2 model=1 kW=7.06007 kvar=1.42991004799331 Phases=2

New Load.load_p1rlv2708 conn=wye bus1=p1rlv2708.1.2 kV=0.2080002494301389 Vminpu=0.8 Vmaxpu=1.2 model=1 kW=3.19003 kvar=0.6494304777239135 Phases=2

New Load.load_p1rlv2709 conn=wye bus1=p1rlv2709.1.2 kV=0.2080002494301389 Vminpu=0.8 Vmaxpu=1.2 model=1 kW=7.55008 kvar=1.5291541380118512 Phases=2

New Load.load_p1rlv2840 conn=wye bus1=p1rlv2840.1.2 kV=0.2080002494301389 Vminpu=0.8 Vmaxpu=1.2 model=1 kW=13.010100000000001 kvar=2.6418134807144593 Phases=2

New Load.load_p1rlv2847 conn=wye bus1=p1rlv2847.1.2 kV=0.2080002494301389 Vminpu=0.8 Vmaxpu=1.2 model=1 kW=10.340100000000001 kvar=2.0996468568216677 Phases=2

New Load.load_p1rlv2848 conn=wye bus1=p1rlv2848.1.2 kV=0.2080002494301389 Vminpu=0.8 Vmaxpu=1.2 model=1 kW=4.17004 kvar=0.8489421946902781 Phases=2

New Load.load_p1rlv2865 conn=wye bus1=p1rlv2865.1.2.3 kV=0.48 Vminpu=0.8 Vmaxpu=1.2 model=1 kW=23.4802 kvar=4.767857963418547 Phases=3

New Load.load_p1rlv2957 conn=wye bus1=p1rlv2957.1.2 kV=0.2080002494301389 Vminpu=0.8 Vmaxpu=1.2 model=1 kW=7.7100800000000005 kvar=1.5696281657820117 Phases=2

New Load.load_p1rlv2964 conn=wye bus1=p1rlv2964.1.2 kV=0.2080002494301389 Vminpu=0.8 Vmaxpu=1.2 model=1 kW=3.22003 kvar=0.6504775958854341 Phases=2

New Load.load_p1rlv2965 conn=wye bus1=p1rlv2965.1.2 kV=0.2080002494301389 Vminpu=0.8 Vmaxpu=1.2 model=1 kW=3.92004 kvar=1.2898453533677394 Phases=2

New Load.load_p1rlv2966 conn=wye bus1=p1rlv2966.1.2 kV=0.2080002494301389 Vminpu=0.8 Vmaxpu=1.2 model=1 kW=5.76006 kvar=1.1696300687715029 Phases=2

New Load.load_p1rlv2967 conn=wye bus1=p1rlv2967.1.2 kV=0.2080002494301389 Vminpu=0.8 Vmaxpu=1.2 model=1 kW=6.80007 kvar=1.3808131064174733 Phases=2

New Load.load_p1rlv2968 conn=wye bus1=p1rlv2968.1.2 kV=0.2080002494301389 Vminpu=0.8 Vmaxpu=1.2 model=1 kW=6.09006 kvar=1.2398223763310365 Phases=2

New Load.load_p1rlv3085 conn=wye bus1=p1rlv3085.1.2 kV=0.2080002494301389 Vminpu=0.8 Vmaxpu=1.2 model=1 kW=7.15007 kvar=1.448138182320505 Phases=2

New Load.load_p1rlv3093 conn=wye bus1=p1rlv3093.1.2 kV=0.2080002494301389 Vminpu=0.8 Vmaxpu=1.2 model=1 kW=7.54008 kvar=1.531078545873243 Phases=2

New Load.load_p1rlv3094 conn=wye bus1=p1rlv3094.1.2 kV=0.2080002494301389 Vminpu=0.8 Vmaxpu=1.2 model=1 kW=5.71006 kvar=1.1594771357398026 Phases=2

New Load.load_p1rlv3216 conn=wye bus1=p1rlv3216.1.2 kV=0.2080002494301389 Vminpu=0.8 Vmaxpu=1.2 model=1 kW=7.10007 kvar=1.4417307046076748 Phases=2

New Load.load_p1rlv3217 conn=wye bus1=p1rlv3217.1.2 kV=0.2080002494301389 Vminpu=0.8 Vmaxpu=1.2 model=1 kW=5.72006 kvar=1.1585113559957074 Phases=2

New Load.load_p1rlv3494 conn=wye bus1=p1rlv3494.1.2 kV=0.2080002494301389 Vminpu=0.8 Vmaxpu=1.2 model=1 kW=4.90005 kvar=1.0001138028631646 Phases=2

New Load.load_p1rlv3495 conn=wye bus1=p1rlv3495.1.2.3 kV=0.48 Vminpu=0.8 Vmaxpu=1.2 model=1 kW=25.450299999999995 kvar=8.374136793710008 Phases=3

New Load.load_p1rlv3496 conn=wye bus1=p1rlv3496.1.2 kV=0.2080002494301389 Vminpu=0.8 Vmaxpu=1.2 model=1 kW=7.69008 kvar=1.5615373449683438 Phases=2

New Load.load_p1rlv3509 conn=wye bus1=p1rlv3509.1.2 kV=0.2080002494301389 Vminpu=0.8 Vmaxpu=1.2 model=1 kW=5.340050000000001 kvar=1.078742398644737 Phases=2

New Load.load_p1rlv3643 conn=wye bus1=p1rlv3643.1.2 kV=0.2080002494301389 Vminpu=0.8 Vmaxpu=1.2 model=1 kW=7.15007 kvar=1.448138182320505 Phases=2

New Load.load_p1rlv3644 conn=wye bus1=p1rlv3644.1.2 kV=0.2080002494301389 Vminpu=0.8 Vmaxpu=1.2 model=1 kW=3.57004 kvar=1.1696104977573867 Phases=2

New Load.load_p1rlv3645 conn=wye bus1=p1rlv3645.1.2 kV=0.2080002494301389 Vminpu=0.8 Vmaxpu=1.2 model=1 kW=5.79006 kvar=1.1696488258905717 Phases=2

New Load.load_p1rlv3646 conn=wye bus1=p1rlv3646.1.2 kV=0.2080002494301389 Vminpu=0.8 Vmaxpu=1.2 model=1 kW=7.72008 kvar=1.5716639788550044 Phases=2

New Load.load_p1rlv3783 conn=wye bus1=p1rlv3783.1.2 kV=0.2080002494301389 Vminpu=0.8 Vmaxpu=1.2 model=1 kW=5.67006 kvar=1.1513547893144422 Phases=2

New Load.load_p1rlv3784 conn=wye bus1=p1rlv3784.1.2 kV=0.2080002494301389 Vminpu=0.8 Vmaxpu=1.2 model=1 kW=6.60007 kvar=1.3402013742906727 Phases=2

New Load.load_p1rlv3785 conn=wye bus1=p1rlv3785.1.2 kV=0.2080002494301389 Vminpu=0.8 Vmaxpu=1.2 model=1 kW=5.28005 kvar=1.069394007270052 Phases=2

New Load.load_p1rlv3786 conn=wye bus1=p1rlv3786.1.2 kV=0.2080002494301389 Vminpu=0.8 Vmaxpu=1.2 model=1 kW=6.45006 kvar=1.3097405446089656 Phases=2

New Load.load_p1rlv3797 conn=wye bus1=p1rlv3797.1.2 kV=0.2080002494301389 Vminpu=0.8 Vmaxpu=1.2 model=1 kW=7.47007 kvar=1.520766616217112 Phases=2

New Load.load_p1rlv3894 conn=wye bus1=p1rlv3894.1.2 kV=0.2080002494301389 Vminpu=0.8 Vmaxpu=1.2 model=1 kW=4.83005 kvar=0.9807834837952725 Phases=2

New Load.load_p1rlv3897 conn=wye bus1=p1rlv3897.1.2 kV=0.2080002494301389 Vminpu=0.8 Vmaxpu=1.2 model=1 kW=5.74006 kvar=1.1685689187762893 Phases=2

New Load.load_p1rlv3898 conn=wye bus1=p1rlv3898.1.2 kV=0.2080002494301389 Vminpu=0.8 Vmaxpu=1.2 model=1 kW=8.03008 kvar=1.630577289583905 Phases=2

New Load.load_p1rlv3899 conn=wye bus1=p1rlv3899.1.2 kV=0.2080002494301389 Vminpu=0.8 Vmaxpu=1.2 model=1 kW=0.5300050000000001 kvar=0.17003091506196852 Phases=2

New Load.load_p1rlv4027 conn=wye bus1=p1rlv4027.1.2 kV=0.2080002494301389 Vminpu=0.8 Vmaxpu=1.2 model=1 kW=5.560060000000001 kvar=1.129018336644702 Phases=2

New Load.load_p1rlv4158 conn=wye bus1=p1rlv4158.1.2 kV=0.2080002494301389 Vminpu=0.8 Vmaxpu=1.2 model=1 kW=4.15004 kvar=0.8405276287025704 Phases=2

New Load.load_p1rlv4159 conn=wye bus1=p1rlv4159.1.2 kV=0.2080002494301389 Vminpu=0.8 Vmaxpu=1.2 model=1 kW=2.26002 kvar=0.4600978261225126 Phases=2

New Load.load_p1rlv4160 conn=wye bus1=p1rlv4160.1.2 kV=0.2080002494301389 Vminpu=0.8 Vmaxpu=1.2 model=1 kW=5.65006 kvar=1.1502466011193542 Phases=2

New Load.load_p1rlv4295 conn=wye bus1=p1rlv4295.1.2 kV=0.2080002494301389 Vminpu=0.8 Vmaxpu=1.2 model=1 kW=7.12007 kvar=1.4383238715589617 Phases=2

New Load.load_p1rlv4313 conn=wye bus1=p1rlv4313.1.2 kV=0.2080002494301389 Vminpu=0.8 Vmaxpu=1.2 model=1 kW=9.13009 kvar=1.849161188215306 Phases=2

New Load.load_p1rlv4314 conn=wye bus1=p1rlv4314.1.2 kV=0.2080002494301389 Vminpu=0.8 Vmaxpu=1.2 model=1 kW=7.70008 kvar=1.559534361890509 Phases=2

New Load.load_p1rlv4446 conn=wye bus1=p1rlv4446.1.2 kV=0.2080002494301389 Vminpu=0.8 Vmaxpu=1.2 model=1 kW=5.460050000000001 kvar=1.1087104399946952 Phases=2

New Load.load_p1rlv4457 conn=wye bus1=p1rlv4457.1.2 kV=0.2080002494301389 Vminpu=0.8 Vmaxpu=1.2 model=1 kW=10.930100000000001 kvar=2.2194514665957303 Phases=2

New Load.load_p1rlv4458 conn=wye bus1=p1rlv4458.1.2.3 kV=0.48 Vminpu=0.8 Vmaxpu=1.2 model=1 kW=37.74040000000001 kvar=12.404669603092367 Phases=3

New Load.load_p1rlv4591 conn=wye bus1=p1rlv4591.1.2 kV=0.2080002494301389 Vminpu=0.8 Vmaxpu=1.2 model=1 kW=6.64007 kvar=1.3483237207160328 Phases=2

New Load.load_p1rlv4592 conn=wye bus1=p1rlv4592.1.2 kV=0.2080002494301389 Vminpu=0.8 Vmaxpu=1.2 model=1 kW=5.33005 kvar=1.0795207485629381 Phases=2

New Load.load_p1rlv4593 conn=wye bus1=p1rlv4593.1.2.3 kV=0.48 Vminpu=0.8 Vmaxpu=1.2 model=1 kW=54.81049999999999 kvar=18.015340146906073 Phases=3

New Load.load_p1rlv4594 conn=wye bus1=p1rlv4594.1.2 kV=0.2080002494301389 Vminpu=0.8 Vmaxpu=1.2 model=1 kW=3.62004 kvar=0.7293785270672118 Phases=2

New Load.load_p1rlv4595 conn=wye bus1=p1rlv4595.1.2 kV=0.2080002494301389 Vminpu=0.8 Vmaxpu=1.2 model=1 kW=7.55008 kvar=1.5291541380118512 Phases=2

New Load.load_p1rlv4607 conn=wye bus1=p1rlv4607.1.2.3 kV=0.48 Vminpu=0.8 Vmaxpu=1.2 model=1 kW=43.3704 kvar=8.806735335161019 Phases=3

New Load.load_p1rlv4608 conn=wye bus1=p1rlv4608.1.2.3 kV=0.48 Vminpu=0.8 Vmaxpu=1.2 model=1 kW=29.490300000000005 kvar=5.988260819694977 Phases=3

New Load.load_p1rlv4737 conn=wye bus1=p1rlv4737.1.2 kV=0.2080002494301389 Vminpu=0.8 Vmaxpu=1.2 model=1 kW=5.01005 kvar=1.019952528634744 Phases=2

New Load.load_p1rlv4738 conn=wye bus1=p1rlv4738.1.2 kV=0.2080002494301389 Vminpu=0.8 Vmaxpu=1.2 model=1 kW=7.33007 kvar=1.488434196553496 Phases=2

New Load.load_p1rlv4739 conn=wye bus1=p1rlv4739.1.2 kV=0.2080002494301389 Vminpu=0.8 Vmaxpu=1.2 model=1 kW=4.74005 kvar=0.9600252013068835 Phases=2

New Load.load_p1rlv4740 conn=wye bus1=p1rlv4740.1.2 kV=0.2080002494301389 Vminpu=0.8 Vmaxpu=1.2 model=1 kW=6.23006 kvar=1.271572534701827 Phases=2

New Load.load_p1rlv4883 conn=wye bus1=p1rlv4883.1.2 kV=0.2080002494301389 Vminpu=0.8 Vmaxpu=1.2 model=1 kW=13.4501 kvar=2.731159291393421 Phases=2

New Load.load_p1rlv4884 conn=wye bus1=p1rlv4884.1.2 kV=0.2080002494301389 Vminpu=0.8 Vmaxpu=1.2 model=1 kW=8.91009 kvar=2.928604958713137 Phases=2

New Load.load_p1rlv4885 conn=wye bus1=p1rlv4885.1.2 kV=0.2080002494301389 Vminpu=0.8 Vmaxpu=1.2 model=1 kW=7.36007 kvar=1.4906704957506258 Phases=2

New Load.load_p1rlv4897 conn=wye bus1=p1rlv4897.1.2 kV=0.2080002494301389 Vminpu=0.8 Vmaxpu=1.2 model=1 kW=1.12001 kvar=0.3701129150603398 Phases=2

New Load.load_p1rlv4898 conn=wye bus1=p1rlv4898.1.2.3 kV=0.48 Vminpu=0.8 Vmaxpu=1.2 model=1 kW=30.120300000000004 kvar=6.116187775894399 Phases=3

New Load.load_p1rlv5016 conn=wye bus1=p1rlv5016.1.2 kV=0.2080002494301389 Vminpu=0.8 Vmaxpu=1.2 model=1 kW=8.03008 kvar=1.630577289583905 Phases=2

New Load.load_p1rlv5017 conn=wye bus1=p1rlv5017.1.2 kV=0.2080002494301389 Vminpu=0.8 Vmaxpu=1.2 model=1 kW=5.10005 kvar=1.0302600481658584 Phases=2

New Load.load_p1rlv5133 conn=wye bus1=p1rlv5133.1.2 kV=0.2080002494301389 Vminpu=0.8 Vmaxpu=1.2 model=1 kW=12.2901 kvar=2.502034624838848 Phases=2

New Load.load_p1rlv5134 conn=wye bus1=p1rlv5134.1.2 kV=0.2080002494301389 Vminpu=0.8 Vmaxpu=1.2 model=1 kW=6.68007 kvar=1.359937383450683 Phases=2

New Load.load_p1rlv5135 conn=wye bus1=p1rlv5135.1.2 kV=0.2080002494301389 Vminpu=0.8 Vmaxpu=1.2 model=1 kW=0.620006 kvar=0.20002114980484142 Phases=2

New Load.load_p1rlv5136 conn=wye bus1=p1rlv5136.1.2 kV=0.2080002494301389 Vminpu=0.8 Vmaxpu=1.2 model=1 kW=8.12008 kvar=1.6488525690409657 Phases=2

New Load.load_p1rlv5137 conn=wye bus1=p1rlv5137.1.2 kV=0.2080002494301389 Vminpu=0.8 Vmaxpu=1.2 model=1 kW=6.570070000000001 kvar=1.3306679833230275 Phases=2

New Load.load_p1rlv5138 conn=wye bus1=p1rlv5138.1.2 kV=0.2080002494301389 Vminpu=0.8 Vmaxpu=1.2 model=1 kW=5.58006 kvar=1.1301564803756265 Phases=2

New Load.load_p1rlv5257 conn=wye bus1=p1rlv5257.1.2 kV=0.2080002494301389 Vminpu=0.8 Vmaxpu=1.2 model=1 kW=6.32006 kvar=1.2800322515103388 Phases=2

New Load.load_p1rlv5258 conn=wye bus1=p1rlv5258.1.2 kV=0.2080002494301389 Vminpu=0.8 Vmaxpu=1.2 model=1 kW=5.29005 kvar=1.0686419089616372 Phases=2

New Load.load_p1rlv5259 conn=wye bus1=p1rlv5259.1.2 kV=0.2080002494301389 Vminpu=0.8 Vmaxpu=1.2 model=1 kW=5.86006 kvar=1.1899359348349032 Phases=2

New Load.load_p1rlv5260 conn=wye bus1=p1rlv5260.1.2 kV=0.2080002494301389 Vminpu=0.8 Vmaxpu=1.2 model=1 kW=6.77007 kvar=1.3711749484945712 Phases=2

New Load.load_p1rlv5271 conn=wye bus1=p1rlv5271.1.2 kV=0.2080002494301389 Vminpu=0.8 Vmaxpu=1.2 model=1 kW=0.900009 kvar=0.2999501800149818 Phases=2

New Load.load_p1rlv5390 conn=wye bus1=p1rlv5390.1.2 kV=0.2080002494301389 Vminpu=0.8 Vmaxpu=1.2 model=1 kW=6.08006 kvar=1.231423893304486 Phases=2

New Load.load_p1rlv5399 conn=wye bus1=p1rlv5399.1.2 kV=0.2080002494301389 Vminpu=0.8 Vmaxpu=1.2 model=1 kW=6.92007 kvar=1.4087968972025093 Phases=2

New Load.load_p1rlv5400 conn=wye bus1=p1rlv5400.1.2 kV=0.2080002494301389 Vminpu=0.8 Vmaxpu=1.2 model=1 kW=5.39005 kvar=1.088842888327837 Phases=2

New Load.load_p1rlv5401 conn=wye bus1=p1rlv5401.1.2 kV=0.2080002494301389 Vminpu=0.8 Vmaxpu=1.2 model=1 kW=5.600060000000001 kvar=1.1400675357543906 Phases=2

New Load.load_p1rlv5413 conn=wye bus1=p1rlv5413.1.2 kV=0.2080002494301389 Vminpu=0.8 Vmaxpu=1.2 model=1 kW=6.93007 kvar=1.4108327102755023 Phases=2

New Load.load_p1rlv5671 conn=wye bus1=p1rlv5671.1.2 kV=0.2080002494301389 Vminpu=0.8 Vmaxpu=1.2 model=1 kW=7.15007 kvar=1.448138182320505 Phases=2

New Load.load_p1rlv5672 conn=wye bus1=p1rlv5672.1.2 kV=0.2080002494301389 Vminpu=0.8 Vmaxpu=1.2 model=1 kW=2.03002 kvar=0.4100839213297234 Phases=2

New Load.load_p1rlv5673 conn=wye bus1=p1rlv5673.1.2 kV=0.2080002494301389 Vminpu=0.8 Vmaxpu=1.2 model=1 kW=3.86004 kvar=1.2701030239011868 Phases=2

New Load.load_p1rlv5796 conn=wye bus1=p1rlv5796.1.2 kV=0.2080002494301389 Vminpu=0.8 Vmaxpu=1.2 model=1 kW=5.39005 kvar=1.1001241626356058 Phases=2

New Load.load_p1rlv5797 conn=wye bus1=p1rlv5797.1.2 kV=0.2080002494301389 Vminpu=0.8 Vmaxpu=1.2 model=1 kW=9.41009 kvar=3.089606520502243 Phases=2

New Load.load_p1rlv5798 conn=wye bus1=p1rlv5798.1.2 kV=0.2080002494301389 Vminpu=0.8 Vmaxpu=1.2 model=1 kW=5.22005 kvar=1.059976361442534 Phases=2

New Load.load_p1rlv5799 conn=wye bus1=p1rlv5799.1.2 kV=0.2080002494301389 Vminpu=0.8 Vmaxpu=1.2 model=1 kW=5.890060000000001 kvar=1.199106114871181 Phases=2

New Load.load_p1rlv5927 conn=wye bus1=p1rlv5927.1.2.3 kV=0.48 Vminpu=0.8 Vmaxpu=1.2 model=1 kW=25.8803 kvar=5.255219054806221 Phases=3

New Load.load_p1rlv5928 conn=wye bus1=p1rlv5928.1.2 kV=0.2080002494301389 Vminpu=0.8 Vmaxpu=1.2 model=1 kW=5.51006 kvar=1.1188654036130017 Phases=2

New Load.load_p1rlv6062 conn=wye bus1=p1rlv6062.1.2 kV=0.2080002494301389 Vminpu=0.8 Vmaxpu=1.2 model=1 kW=6.26006 kvar=1.2711593990885048 Phases=2

New Load.load_p1rlv6063 conn=wye bus1=p1rlv6063.1.2 kV=0.2080002494301389 Vminpu=0.8 Vmaxpu=1.2 model=1 kW=5.47005 kvar=1.110741026601035 Phases=2

New Load.load_p1rlv6070 conn=wye bus1=p1rlv6070.1.2 kV=0.2080002494301389 Vminpu=0.8 Vmaxpu=1.2 model=1 kW=4.58005 kvar=0.9300188186367714 Phases=2

New Load.load_p1rlv6187 conn=wye bus1=p1rlv6187.1.2 kV=0.2080002494301389 Vminpu=0.8 Vmaxpu=1.2 model=1 kW=6.20006 kvar=1.2589758794504644 Phases=2

New Load.load_p1rlv6199 conn=wye bus1=p1rlv6199.1.2 kV=0.2080002494301389 Vminpu=0.8 Vmaxpu=1.2 model=1 kW=5.59006 kvar=1.1292468671581726 Phases=2

New Load.load_p1rlv6308 conn=wye bus1=p1rlv6308.1.2 kV=0.2080002494301389 Vminpu=0.8 Vmaxpu=1.2 model=1 kW=5.23005 kvar=1.059267265977166 Phases=2

New Load.load_p1rlv6329 conn=wye bus1=p1rlv6329.1.2 kV=0.2080002494301389 Vminpu=0.8 Vmaxpu=1.2 model=1 kW=7.44007 kvar=1.5107706492232365 Phases=2

New Load.load_p1rlv6434 conn=wye bus1=p1rlv6434.1.2 kV=0.2080002494301389 Vminpu=0.8 Vmaxpu=1.2 model=1 kW=8.18008 kvar=1.6610360886790059 Phases=2

New Load.load_p1rlv6435 conn=wye bus1=p1rlv6435.1.2 kV=0.2080002494301389 Vminpu=0.8 Vmaxpu=1.2 model=1 kW=5.88006 kvar=1.1909169281329426 Phases=2

New Load.load_p1rlv6436 conn=wye bus1=p1rlv6436.1.2 kV=0.2080002494301389 Vminpu=0.8 Vmaxpu=1.2 model=1 kW=11.8701 kvar=3.9015131968836236 Phases=2

New Load.load_p1rlv6550 conn=wye bus1=p1rlv6550.1.2 kV=0.2080002494301389 Vminpu=0.8 Vmaxpu=1.2 model=1 kW=6.97007 kvar=1.4189759625674734 Phases=2

New Load.load_p1rlv6551 conn=wye bus1=p1rlv6551.1.2 kV=0.2080002494301389 Vminpu=0.8 Vmaxpu=1.2 model=1 kW=5.49005 kvar=1.1090438676940364 Phases=2

New Load.load_p1rlv6567 conn=wye bus1=p1rlv6567.1.2 kV=0.2080002494301389 Vminpu=0.8 Vmaxpu=1.2 model=1 kW=16.1002 kvar=3.269285047939596 Phases=2

New Load.load_p1rlv6692 conn=wye bus1=p1rlv6692.1.2 kV=0.2080002494301389 Vminpu=0.8 Vmaxpu=1.2 model=1 kW=6.29006 kvar=1.280538637790892 Phases=2

New Load.load_p1rlv6698 conn=wye bus1=p1rlv6698.1.2 kV=0.2080002494301389 Vminpu=0.8 Vmaxpu=1.2 model=1 kW=9.7801 kvar=1.9910455435176613 Phases=2

New Load.load_p1rlv6699 conn=wye bus1=p1rlv6699.1.2 kV=0.2080002494301389 Vminpu=0.8 Vmaxpu=1.2 model=1 kW=5.50006 kvar=1.119709405024463 Phases=2

New Load.load_p1rlv6700 conn=wye bus1=p1rlv6700.1.2 kV=0.2080002494301389 Vminpu=0.8 Vmaxpu=1.2 model=1 kW=2.39002 kvar=0.7897940815283019 Phases=2

New Load.load_p1rlv6701 conn=wye bus1=p1rlv6701.1.2 kV=0.2080002494301389 Vminpu=0.8 Vmaxpu=1.2 model=1 kW=6.75007 kvar=1.3706601733857733 Phases=2

New Load.load_p1rlv6702 conn=wye bus1=p1rlv6702.1.2 kV=0.2080002494301389 Vminpu=0.8 Vmaxpu=1.2 model=1 kW=9.840100000000001 kvar=1.9981175265046658 Phases=2

New Load.load_p1rlv6825 conn=wye bus1=p1rlv6825.1.2 kV=0.2080002494301389 Vminpu=0.8 Vmaxpu=1.2 model=1 kW=6.55007 kvar=1.3300484412589724 Phases=2

New Load.load_p1rlv6837 conn=wye bus1=p1rlv6837.1.2 kV=0.2080002494301389 Vminpu=0.8 Vmaxpu=1.2 model=1 kW=5.06005 kvar=1.030131593999708 Phases=2

New Load.load_p1rlv6930 conn=wye bus1=p1rlv6930.1.2 kV=0.2080002494301389 Vminpu=0.8 Vmaxpu=1.2 model=1 kW=6.93007 kvar=1.4108327102755023 Phases=2

New Load.load_p1rlv6936 conn=wye bus1=p1rlv6936.1.2 kV=0.2080002494301389 Vminpu=0.8 Vmaxpu=1.2 model=1 kW=7.22007 kvar=1.4698712893922927 Phases=2

New Load.load_p1rlv6938 conn=wye bus1=p1rlv6938.1.2 kV=0.2080002494301389 Vminpu=0.8 Vmaxpu=1.2 model=1 kW=8.26008 kvar=1.681597884796614 Phases=2

New Load.load_p1rlv6939 conn=wye bus1=p1rlv6939.1.2 kV=0.2080002494301389 Vminpu=0.8 Vmaxpu=1.2 model=1 kW=6.56007 kvar=1.3286426350644502 Phases=2

New Load.load_p1rlv6952 conn=wye bus1=p1rlv6952.1.2.3 kV=0.48 Vminpu=0.8 Vmaxpu=1.2 model=1 kW=57.98060000000001 kvar=11.77346297875595 Phases=3

New Load.load_p1rlv7073 conn=wye bus1=p1rlv7073.1.2 kV=0.2080002494301389 Vminpu=0.8 Vmaxpu=1.2 model=1 kW=6.34006 kvar=1.2907177031558559 Phases=2

New Load.load_p1rlv7078 conn=wye bus1=p1rlv7078.1.2 kV=0.2080002494301389 Vminpu=0.8 Vmaxpu=1.2 model=1 kW=2.57003 kvar=0.520520578499115 Phases=2

New Load.load_p1rlv7079 conn=wye bus1=p1rlv7079.1.2 kV=0.2080002494301389 Vminpu=0.8 Vmaxpu=1.2 model=1 kW=3.99004 kvar=1.3100463014769006 Phases=2

New Load.load_p1rlv7213 conn=wye bus1=p1rlv7213.1.2 kV=0.2080002494301389 Vminpu=0.8 Vmaxpu=1.2 model=1 kW=5.44005 kvar=1.0989433780109366 Phases=2

New Load.load_p1rlv7221 conn=wye bus1=p1rlv7221.1.2 kV=0.2080002494301389 Vminpu=0.8 Vmaxpu=1.2 model=1 kW=4.90005 kvar=0.9898580894334593 Phases=2

New Load.load_p1rlv7224 conn=wye bus1=p1rlv7224.1.2 kV=0.2080002494301389 Vminpu=0.8 Vmaxpu=1.2 model=1 kW=5.35005 kvar=1.0891701731164982 Phases=2

New Load.load_p1rlv7347 conn=wye bus1=p1rlv7347.1.2 kV=0.2080002494301389 Vminpu=0.8 Vmaxpu=1.2 model=1 kW=5.32005 kvar=1.0802822275059345 Phases=2

New Load.load_p1rlv7350 conn=wye bus1=p1rlv7350.1.2 kV=0.2080002494301389 Vminpu=0.8 Vmaxpu=1.2 model=1 kW=3.9400400000000007 kvar=1.289427373309687 Phases=2

New Load.load_p1rlv7498 conn=wye bus1=p1rlv7498.1.2 kV=0.2080002494301389 Vminpu=0.8 Vmaxpu=1.2 model=1 kW=7.27007 kvar=1.4800503547572565 Phases=2

New Load.load_p1rlv7501 conn=wye bus1=p1rlv7501.1.2 kV=0.2080002494301389 Vminpu=0.8 Vmaxpu=1.2 model=1 kW=6.30006 kvar=1.2792817455138652 Phases=2

New Load.load_p1rlv7502 conn=wye bus1=p1rlv7502.1.2 kV=0.2080002494301389 Vminpu=0.8 Vmaxpu=1.2 model=1 kW=5.74006 kvar=1.1685689187762893 Phases=2

New Load.load_p1rlv7640 conn=wye bus1=p1rlv7640.1.2 kV=0.2080002494301389 Vminpu=0.8 Vmaxpu=1.2 model=1 kW=6.42006 kvar=2.110171676294612 Phases=2

New Load.load_p1rlv7641 conn=wye bus1=p1rlv7641.1.2 kV=0.2080002494301389 Vminpu=0.8 Vmaxpu=1.2 model=1 kW=3.79004 kvar=0.7696004461493017 Phases=2

New Load.load_p1rlv7642 conn=wye bus1=p1rlv7642.1.2 kV=0.2080002494301389 Vminpu=0.8 Vmaxpu=1.2 model=1 kW=9.6601 kvar=1.961566967590545 Phases=2

New Load.load_p1rlv7659 conn=wye bus1=p1rlv7659.1.2 kV=0.2080002494301389 Vminpu=0.8 Vmaxpu=1.2 model=1 kW=6.58007 kvar=1.3395792527207553 Phases=2

New Load.load_p1rlv7776 conn=wye bus1=p1rlv7776.1.2 kV=0.2080002494301389 Vminpu=0.8 Vmaxpu=1.2 model=1 kW=2.41002 kvar=0.7904235441810314 Phases=2

New Load.load_p1rlv8027 conn=wye bus1=p1rlv8027.1.2 kV=0.2080002494301389 Vminpu=0.8 Vmaxpu=1.2 model=1 kW=7.070070000000001 kvar=1.428223381875862 Phases=2

New Load.load_p1rlv8028 conn=wye bus1=p1rlv8028.1.2 kV=0.2080002494301389 Vminpu=0.8 Vmaxpu=1.2 model=1 kW=7.17007 kvar=1.459692224027329 Phases=2
