New Line.l(r:p2udt216lv-p2ulv20418) Units=km Length=0.0141055 bus1=p2udt216lv.1.2 bus2=p2ulv20418.1.2 switch=n enabled=y phases=2 Linecode=1P_UG_AL_1/0_Brenau_0_416_0_2_2_2_2

New Line.l(r:p2udm804-p2ulv221) Units=km Length=0.0139995 bus1=p2udm804.1.2 bus2=p2ulv221.1.2 switch=n enabled=y phases=2 Linecode=1P_UG_AL_1/0_Brenau_0_416_0_2_2_2_2

New Line.l(r:p2udm804-p2udt216lv) Units=km Length=0.00967856 bus1=p2udt216lv.1.2 bus2=p2udm804.1.2 switch=n enabled=y phases=2 Linecode=1P_UG_AL_1/0_Brenau_0_416_0_2_2_2_2

New Line.l(r:p2udm805-p2ulv7248) Units=km Length=0.0163157 bus1=p2udm805.1.2 bus2=p2ulv7248.1.2 switch=n enabled=y phases=2 Linecode=1P_UG_AL_1/0_Brenau_0_416_0_2_2_2_2

New Line.l(r:p2udm805-p2udt216lv) Units=km Length=0.00693681 bus1=p2udt216lv.1.2 bus2=p2udm805.1.2 switch=n enabled=y phases=2 Linecode=1P_UG_AL_1/0_Brenau_0_416_0_2_2_2_2

New Line.l(r:p2udt218lv-p2ulv7472) Units=km Length=0.0162095 bus1=p2udt218lv.1.2 bus2=p2ulv7472.1.2 switch=n enabled=y phases=2 Linecode=1P_UG_AL_1/0_Brenau_0_416_0_2_2_2_2

New Line.l(r:p2udm809-p2ulv223) Units=km Length=0.0152365 bus1=p2udm809.1.2 bus2=p2ulv223.1.2 switch=n enabled=y phases=2 Linecode=1P_UG_AL_1/0_Brenau_0_416_0_2_2_2_2

New Line.l(r:p2udm809-p2udt218lv) Units=km Length=0.00906062 bus1=p2udt218lv.1.2 bus2=p2udm809.1.2 switch=n enabled=y phases=2 Linecode=1P_UG_AL_1/0_Brenau_0_416_0_2_2_2_2

New Line.l(r:p2udm811-p2ulv224) Units=km Length=0.0174498 bus1=p2udm811.1.2 bus2=p2ulv224.1.2 switch=n enabled=y phases=2 Linecode=1P_UG_AL_1/0_Brenau_0_416_0_2_2_2_2

New Line.l(r:p2udm811-p2ulv2134) Units=km Length=0.0155847 bus1=p2udm811.1.2 bus2=p2ulv2134.1.2 switch=n enabled=y phases=2 Linecode=1P_UG_AL_1/0_Brenau_0_416_0_2_2_2_2

New Line.l(r:p2udm811-p2ulv5773) Units=km Length=0.0149004 bus1=p2udm811.1.2 bus2=p2ulv5773.1.2 switch=n enabled=y phases=2 Linecode=1P_UG_AL_1/0_Brenau_0_416_0_2_2_2_2

New Line.l(r:p2udm811-p2udt219lv) Units=km Length=0.00950238 bus1=p2udt219lv.1.2 bus2=p2udm811.1.2 switch=n enabled=y phases=2 Linecode=1P_UG_AL_4/0_Sweetbriar_0_416_0_2_2_2_2

New Line.l(r:p2udm814-p2ulv16343) Units=km Length=0.0156991 bus1=p2udm814.1.2 bus2=p2ulv16343.1.2 switch=n enabled=y phases=2 Linecode=1P_UG_AL_1/0_Brenau_0_416_0_2_2_2_2

New Line.l(r:p2udm814-p2udt219lv) Units=km Length=0.00950238 bus1=p2udt219lv.1.2 bus2=p2udm814.1.2 switch=n enabled=y phases=2 Linecode=1P_UG_AL_1/0_Brenau_0_416_0_2_2_2_2

New Line.l(r:p2udt247lv-p2ulv20203) Units=km Length=0.0156677 bus1=p2udt247lv.1.2 bus2=p2ulv20203.1.2 switch=n enabled=y phases=2 Linecode=1P_UG_AL_1/0_Brenau_0_416_0_2_2_2_2

New Line.l(r:p2udm918-p2ulv10295) Units=km Length=0.0149311 bus1=p2udm918.1.2 bus2=p2ulv10295.1.2 switch=n enabled=y phases=2 Linecode=1P_UG_AL_1/0_Brenau_0_416_0_2_2_2_2

New Line.l(r:p2udm917-p2ulv253) Units=km Length=0.0160688 bus1=p2udm917.1.2 bus2=p2ulv253.1.2 switch=n enabled=y phases=2 Linecode=1P_UG_AL_1/0_Brenau_0_416_0_2_2_2_2

New Line.l(r:p2udm917-p2udm918) Units=km Length=0.00925584 bus1=p2udm918.1.2 bus2=p2udm917.1.2 switch=n enabled=y phases=2 Linecode=1P_UG_AL_1/0_Brenau_0_416_0_2_2_2_2

New Line.l(r:p2udm918-p2udt247lv) Units=km Length=0.00924689 bus1=p2udt247lv.1.2 bus2=p2udm918.1.2 switch=n enabled=y phases=2 Linecode=1P_UG_AL_4/0_Sweetbriar_0_416_0_2_2_2_2

New Line.l(r:p2udm919-p2ulv11026) Units=km Length=0.0159567 bus1=p2udm919.1.2 bus2=p2ulv11026.1.2 switch=n enabled=y phases=2 Linecode=1P_UG_AL_1/0_Brenau_0_416_0_2_2_2_2

New Line.l(r:p2udm919-p2udt247lv) Units=km Length=0.0184918 bus1=p2udt247lv.1.2 bus2=p2udm919.1.2 switch=n enabled=y phases=2 Linecode=1P_UG_AL_1/0_Brenau_0_416_0_2_2_2_2

New Line.l(r:p2udm923-p2ulv7995) Units=km Length=0.0148136 bus1=p2udm923.1.2 bus2=p2ulv7995.1.2 switch=n enabled=y phases=2 Linecode=1P_UG_AL_1/0_Brenau_0_416_0_2_2_2_2

New Line.l(r:p2udm921-p2ulv254) Units=km Length=0.0169239 bus1=p2udm921.1.2 bus2=p2ulv254.1.2 switch=n enabled=y phases=2 Linecode=1P_UG_AL_1/0_Brenau_0_416_0_2_2_2_2

New Line.l(r:p2udm921-p2ulv3865) Units=km Length=0.0163369 bus1=p2udm921.1.2 bus2=p2ulv3865.1.2 switch=n enabled=y phases=2 Linecode=1P_UG_AL_1/0_Brenau_0_416_0_2_2_2_2

New Line.l(r:p2udm921-p2udm923) Units=km Length=0.00961293 bus1=p2udm923.1.2 bus2=p2udm921.1.2 switch=n enabled=y phases=2 Linecode=1P_UG_AL_4/0_Sweetbriar_0_416_0_2_2_2_2

New Line.l(r:p2udm923-p2udt248lv) Units=km Length=0.00961784 bus1=p2udt248lv.1.2 bus2=p2udm923.1.2 switch=n enabled=y phases=2 Linecode=1P_UG_AL_4/0_Sweetbriar_0_416_0_2_2_2_2

New Line.l(r:p2udm926-p2ulv23788) Units=km Length=0.0148427 bus1=p2udm926.1.2 bus2=p2ulv23788.1.2 switch=n enabled=y phases=2 Linecode=1P_UG_AL_1/0_Brenau_0_416_0_2_2_2_2

New Line.l(r:p2udm925-p2ulv20204) Units=km Length=0.0165267 bus1=p2udm925.1.2 bus2=p2ulv20204.1.2 switch=n enabled=y phases=2 Linecode=1P_UG_AL_1/0_Brenau_0_416_0_2_2_2_2

New Line.l(r:p2udm924-p2ulv12426) Units=km Length=0.0162434 bus1=p2udm924.1.2 bus2=p2ulv12426.1.2 switch=n enabled=y phases=2 Linecode=1P_UG_AL_1/0_Brenau_0_416_0_2_2_2_2

New Line.l(r:p2udm924-p2udm925) Units=km Length=0.0144117 bus1=p2udm925.1.2 bus2=p2udm924.1.2 switch=n enabled=y phases=2 Linecode=1P_UG_AL_1/0_Brenau_0_416_0_2_2_2_2

New Line.l(r:p2udm925-p2udm926) Units=km Length=0.00766093 bus1=p2udm926.1.2 bus2=p2udm925.1.2 switch=n enabled=y phases=2 Linecode=1P_UG_AL_4/0_Sweetbriar_0_416_0_2_2_2_2

New Line.l(r:p2udm926-p2udt248lv) Units=km Length=0.0076564 bus1=p2udt248lv.1.2 bus2=p2udm926.1.2 switch=n enabled=y phases=2 Linecode=1P_UG_AL_4/0_Sweetbriar_0_416_0_2_2_2_2

New Line.l(r:p2udm927-p2ulv255) Units=km Length=0.0149504 bus1=p2udm927.1.2 bus2=p2ulv255.1.2 switch=n enabled=y phases=2 Linecode=1P_UG_AL_1/0_Brenau_0_416_0_2_2_2_2

New Line.l(r:p2udm927-p2udt249lv) Units=km Length=0.0196988 bus1=p2udt249lv.1.2 bus2=p2udm927.1.2 switch=n enabled=y phases=2 Linecode=1P_UG_AL_1/0_Brenau_0_416_0_2_2_2_2

New Line.l(r:p2udm928-p2ulv5565) Units=km Length=0.0165618 bus1=p2udm928.1.2 bus2=p2ulv5565.1.2 switch=n enabled=y phases=2 Linecode=1P_UG_AL_1/0_Brenau_0_416_0_2_2_2_2

New Line.l(r:p2udm928-p2udt249lv) Units=km Length=0.0291046 bus1=p2udt249lv.1.2 bus2=p2udm928.1.2 switch=n enabled=y phases=2 Linecode=1P_UG_AL_1/0_Brenau_0_416_0_2_2_2_2

New Line.l(r:p2udm929-p2ulv8231) Units=km Length=0.0152386 bus1=p2udm929.1.2 bus2=p2ulv8231.1.2 switch=n enabled=y phases=2 Linecode=1P_UG_AL_1/0_Brenau_0_416_0_2_2_2_2

New Line.l(r:p2udm930-p2ulv16120) Units=km Length=0.0164857 bus1=p2udm930.1.2 bus2=p2ulv16120.1.2 switch=n enabled=y phases=2 Linecode=1P_UG_AL_1/0_Brenau_0_416_0_2_2_2_2

New Line.l(r:p2udm929-p2udm930) Units=km Length=0.0183127 bus1=p2udm929.1.2 bus2=p2udm930.1.2 switch=n enabled=y phases=2 Linecode=1P_UG_AL_1/0_Brenau_0_416_0_2_2_2_2

New Line.l(r:p2udm929-p2udt249lv) Units=km Length=0.00915679 bus1=p2udt249lv.1.2 bus2=p2udm929.1.2 switch=n enabled=y phases=2 Linecode=1P_UG_AL_4/0_Sweetbriar_0_416_0_2_2_2_2

New Line.l(r:p2udt250lv-p2ulv3867) Units=km Length=0.0172212 bus1=p2udt250lv.1.2 bus2=p2ulv3867.1.2 switch=n enabled=y phases=2 Linecode=1P_OH_AL_2/0_Rucina_0_416_0_2_2_2_2

New Line.l(r:p2udt250lv-p2ulv12924) Units=km Length=0.0184871 bus1=p2udt250lv.1.2 bus2=p2ulv12924.1.2 switch=n enabled=y phases=2 Linecode=1P_OH_AL_2/0_Rucina_0_416_0_2_2_2_2

New Line.l(r:p2udm931-p2ulv256) Units=km Length=0.020504 bus1=p2udm931.1.2 bus2=p2ulv256.1.2 switch=n enabled=y phases=2 Linecode=1P_OH_AL_2/0_Rucina_0_416_0_2_2_2_2

New Line.l(r:p2udm931-p2ulv9365) Units=km Length=0.0219656 bus1=p2udm931.1.2 bus2=p2ulv9365.1.2 switch=n enabled=y phases=2 Linecode=1P_OH_AL_2/0_Rucina_0_416_0_2_2_2_2

New Line.l(r:p2udm931-p2udt250lv) Units=km Length=0.0167439 bus1=p2udt250lv.1.2 bus2=p2udm931.1.2 switch=n enabled=y phases=2 Linecode=1P_OH_AL_2/0_Rucina_0_416_0_2_2_2_2

New Line.l(r:p2udm935-p2ulv15186) Units=km Length=0.016349100000000002 bus1=p2udm935.1.2 bus2=p2ulv15186.1.2 switch=n enabled=y phases=2 Linecode=1P_OH_AL_2/0_Rucina_0_416_0_2_2_2_2

New Line.l(r:p2udm935-p2ulv22495) Units=km Length=0.0156237 bus1=p2udm935.1.2 bus2=p2ulv22495.1.2 switch=n enabled=y phases=2 Linecode=1P_OH_AL_2/0_Rucina_0_416_0_2_2_2_2

New Line.l(r:p2udm935-p2udt250lv) Units=km Length=0.0167487 bus1=p2udt250lv.1.2 bus2=p2udm935.1.2 switch=n enabled=y phases=2 Linecode=1P_OH_AL_2/0_Rucina_0_416_0_2_2_2_2

New Line.l(r:p2udt435lv-p2ulv21742) Units=km Length=0.0143131 bus1=p2udt435lv.1.2 bus2=p2ulv21742.1.2 switch=n enabled=y phases=2 Linecode=1P_UG_AL_1/0_Brenau_0_416_0_2_2_2_2

New Line.l(r:p2udm1602-p2ulv452) Units=km Length=0.0146981 bus1=p2udm1602.1.2 bus2=p2ulv452.1.2 switch=n enabled=y phases=2 Linecode=1P_UG_AL_1/0_Brenau_0_416_0_2_2_2_2

New Line.l(r:p2udm1602-p2ulv6285) Units=km Length=0.0136691 bus1=p2udm1602.1.2 bus2=p2ulv6285.1.2 switch=n enabled=y phases=2 Linecode=1P_UG_AL_1/0_Brenau_0_416_0_2_2_2_2

New Line.l(r:p2udm1607-p2ulv22218) Units=km Length=0.0145824 bus1=p2udm1607.1.2 bus2=p2ulv22218.1.2 switch=n enabled=y phases=2 Linecode=1P_UG_AL_1/0_Brenau_0_416_0_2_2_2_2

New Line.l(r:p2udm1602-p2udm1607) Units=km Length=0.0186231 bus1=p2udm1602.1.2 bus2=p2udm1607.1.2 switch=n enabled=y phases=2 Linecode=1P_UG_AL_1/0_Brenau_0_416_0_2_2_2_2

New Line.l(r:p2udm1602-p2udt435lv) Units=km Length=0.00930559 bus1=p2udt435lv.1.2 bus2=p2udm1602.1.2 switch=n enabled=y phases=2 Linecode=1P_UG_AL_4/0_Sweetbriar_0_416_0_2_2_2_2

New Line.l(r:p2udm1605-p2ulv21525) Units=km Length=0.014024900000000002 bus1=p2udm1605.1.2 bus2=p2ulv21525.1.2 switch=n enabled=y phases=2 Linecode=1P_UG_AL_1/0_Brenau_0_416_0_2_2_2_2

New Line.l(r:p2udm1603-p2ulv453) Units=km Length=0.0126035 bus1=p2udm1603.1.2 bus2=p2ulv453.1.2 switch=n enabled=y phases=2 Linecode=1P_UG_AL_1/0_Brenau_0_416_0_2_2_2_2

New Line.l(r:p2udm1603-p2udm1605) Units=km Length=0.00938133 bus1=p2udm1605.1.2 bus2=p2udm1603.1.2 switch=n enabled=y phases=2 Linecode=1P_UG_AL_1/0_Brenau_0_416_0_2_2_2_2

New Line.l(r:p2udm1605-p2udt435lv) Units=km Length=0.0186979 bus1=p2udt435lv.1.2 bus2=p2udm1605.1.2 switch=n enabled=y phases=2 Linecode=1P_UG_AL_4/0_Sweetbriar_0_416_0_2_2_2_2

New Line.l(r:p2udm1609-p2ulv1433) Units=km Length=0.0157199 bus1=p2udm1609.1.2 bus2=p2ulv1433.1.2 switch=n enabled=y phases=2 Linecode=1P_UG_AL_1/0_Brenau_0_416_0_2_2_2_2

New Line.l(r:p2udm1608-p2ulv454) Units=km Length=0.013581100000000002 bus1=p2udm1608.1.2 bus2=p2ulv454.1.2 switch=n enabled=y phases=2 Linecode=1P_UG_AL_1/0_Brenau_0_416_0_2_2_2_2

New Line.l(r:p2udm1608-p2udm1609) Units=km Length=0.00795239 bus1=p2udm1609.1.2 bus2=p2udm1608.1.2 switch=n enabled=y phases=2 Linecode=1P_UG_AL_1/0_Brenau_0_416_0_2_2_2_2

New Line.l(r:p2udm1609-p2udt436lv) Units=km Length=0.0158948 bus1=p2udt436lv.1.2 bus2=p2udm1609.1.2 switch=n enabled=y phases=2 Linecode=1P_UG_AL_4/0_Sweetbriar_0_416_0_2_2_2_2

New Line.l(r:p2udm1610-p2ulv13603) Units=km Length=0.0159025 bus1=p2udm1610.1.2 bus2=p2ulv13603.1.2 switch=n enabled=y phases=2 Linecode=1P_UG_AL_1/0_Brenau_0_416_0_2_2_2_2

New Line.l(r:p2udm1611-p2ulv16095) Units=km Length=0.015851 bus1=p2udm1611.1.2 bus2=p2ulv16095.1.2 switch=n enabled=y phases=2 Linecode=1P_UG_AL_1/0_Brenau_0_416_0_2_2_2_2

New Line.l(r:p2udm1610-p2udm1611) Units=km Length=0.00934442 bus1=p2udm1610.1.2 bus2=p2udm1611.1.2 switch=n enabled=y phases=2 Linecode=1P_UG_AL_1/0_Brenau_0_416_0_2_2_2_2

New Line.l(r:p2udm1610-p2udt436lv) Units=km Length=0.00795343 bus1=p2udt436lv.1.2 bus2=p2udm1610.1.2 switch=n enabled=y phases=2 Linecode=1P_UG_AL_4/0_Sweetbriar_0_416_0_2_2_2_2

New Line.l(r:p2udt437lv-p2ulv455) Units=km Length=0.014747600000000001 bus1=p2udt437lv.1.2 bus2=p2ulv455.1.2 switch=n enabled=y phases=2 Linecode=1P_UG_AL_1/0_Brenau_0_416_0_2_2_2_2

New Line.l(r:p2udm1614-p2ulv3611) Units=km Length=0.0169157 bus1=p2udm1614.1.2 bus2=p2ulv3611.1.2 switch=n enabled=y phases=2 Linecode=1P_UG_AL_1/0_Brenau_0_416_0_2_2_2_2

New Line.l(r:p2udm1616-p2ulv14260) Units=km Length=0.0143638 bus1=p2udm1616.1.2 bus2=p2ulv14260.1.2 switch=n enabled=y phases=2 Linecode=1P_UG_AL_1/0_Brenau_0_416_0_2_2_2_2

New Line.l(r:p2udm1614-p2udm1616) Units=km Length=0.00965767 bus1=p2udm1614.1.2 bus2=p2udm1616.1.2 switch=n enabled=y phases=2 Linecode=1P_UG_AL_1/0_Brenau_0_416_0_2_2_2_2

New Line.l(r:p2udm1614-p2udt437lv) Units=km Length=0.00965767 bus1=p2udt437lv.1.2 bus2=p2udm1614.1.2 switch=n enabled=y phases=2 Linecode=1P_UG_AL_4/0_Sweetbriar_0_416_0_2_2_2_2

New Line.l(r:p2udm1615-p2ulv6286) Units=km Length=0.0166064 bus1=p2udm1615.1.2 bus2=p2ulv6286.1.2 switch=n enabled=y phases=2 Linecode=1P_UG_AL_1/0_Brenau_0_416_0_2_2_2_2

New Line.l(r:p2udm1613-p2ulv2394) Units=km Length=0.0147764 bus1=p2udm1613.1.2 bus2=p2ulv2394.1.2 switch=n enabled=y phases=2 Linecode=1P_UG_AL_1/0_Brenau_0_416_0_2_2_2_2

New Line.l(r:p2udm1613-p2ulv18590) Units=km Length=0.0158447 bus1=p2udm1613.1.2 bus2=p2ulv18590.1.2 switch=n enabled=y phases=2 Linecode=1P_UG_AL_1/0_Brenau_0_416_0_2_2_2_2

New Line.l(r:p2udm1613-p2udm1615) Units=km Length=0.00965767 bus1=p2udm1615.1.2 bus2=p2udm1613.1.2 switch=n enabled=y phases=2 Linecode=1P_UG_AL_4/0_Sweetbriar_0_416_0_2_2_2_2

New Line.l(r:p2udm1615-p2udt437lv) Units=km Length=0.00966247 bus1=p2udt437lv.1.2 bus2=p2udm1615.1.2 switch=n enabled=y phases=2 Linecode=1P_UG_AL_4/0_Sweetbriar_0_416_0_2_2_2_2

New Line.l(r:p2udt457lv-p2ulv477) Units=km Length=0.11080100000000001 bus1=p2udt457lv.1.2 bus2=p2ulv477.1.2 switch=n enabled=y phases=2 Linecode=1P_OH_AL_4/0_Zuzara_0_416_0_2_2_2_2

New Line.l(r:p2udt457lv-p2ulv4364) Units=km Length=0.0337158 bus1=p2udt457lv.1.2 bus2=p2ulv4364.1.2 switch=n enabled=y phases=2 Linecode=1P_OH_AL_4/0_Zuzara_0_416_0_2_2_2_2

New Line.l(r:p2udt649lv-p2ulv10770) Units=km Length=0.0160961 bus1=p2udt649lv.1.2 bus2=p2ulv10770.1.2 switch=n enabled=y phases=2 Linecode=1P_OH_AL_2/0_Rucina_0_416_0_2_2_2_2

New Line.l(r:p2udt649lv-p2ulv17923) Units=km Length=0.0172568 bus1=p2udt649lv.1.2 bus2=p2ulv17923.1.2 switch=n enabled=y phases=2 Linecode=1P_OH_AL_2/0_Rucina_0_416_0_2_2_2_2

New Line.l(r:p2udt649lv-p2ulv21983) Units=km Length=0.014832 bus1=p2udt649lv.1.2 bus2=p2ulv21983.1.2 switch=n enabled=y phases=2 Linecode=1P_OH_AL_2/0_Rucina_0_416_0_2_2_2_2

New Line.l(r:p2udm2407-p2ulv687) Units=km Length=0.014840000000000002 bus1=p2udm2407.1.2 bus2=p2ulv687.1.2 switch=n enabled=y phases=2 Linecode=1P_OH_AL_2/0_Rucina_0_416_0_2_2_2_2

New Line.l(r:p2udm2407-p2ulv6530) Units=km Length=0.014497100000000002 bus1=p2udm2407.1.2 bus2=p2ulv6530.1.2 switch=n enabled=y phases=2 Linecode=1P_OH_AL_2/0_Rucina_0_416_0_2_2_2_2

New Line.l(r:p2udm2407-p2udt649lv) Units=km Length=0.017694100000000004 bus1=p2udt649lv.1.2 bus2=p2udm2407.1.2 switch=n enabled=y phases=2 Linecode=1P_OH_AL_2/0_Rucina_0_416_0_2_2_2_2

New Line.l(r:p2udt650lv-p2ulv688) Units=km Length=0.015765 bus1=p2udt650lv.1.2 bus2=p2ulv688.1.2 switch=n enabled=y phases=2 Linecode=1P_UG_AL_1/0_Brenau_0_416_0_2_2_2_2

New Line.l(r:p2udt650lv-p2ulv2395) Units=km Length=0.0159282 bus1=p2udt650lv.1.2 bus2=p2ulv2395.1.2 switch=n enabled=y phases=2 Linecode=1P_UG_AL_1/0_Brenau_0_416_0_2_2_2_2

New Line.l(r:p2udm2414-p2ulv8853) Units=km Length=0.0158963 bus1=p2udm2414.1.2 bus2=p2ulv8853.1.2 switch=n enabled=y phases=2 Linecode=1P_UG_AL_1/0_Brenau_0_416_0_2_2_2_2

New Line.l(r:p2udm2415-p2ulv11237) Units=km Length=0.015203700000000002 bus1=p2udm2415.1.2 bus2=p2ulv11237.1.2 switch=n enabled=y phases=2 Linecode=1P_UG_AL_1/0_Brenau_0_416_0_2_2_2_2

New Line.l(r:p2udm2414-p2udm2415) Units=km Length=0.00941977 bus1=p2udm2414.1.2 bus2=p2udm2415.1.2 switch=n enabled=y phases=2 Linecode=1P_UG_AL_1/0_Brenau_0_416_0_2_2_2_2

New Line.l(r:p2udm2414-p2udt650lv) Units=km Length=0.0188261 bus1=p2udt650lv.1.2 bus2=p2udm2414.1.2 switch=n enabled=y phases=2 Linecode=1P_UG_AL_4/0_Sweetbriar_0_416_0_2_2_2_2

New Line.l(r:p2udm2417-p2ulv22221) Units=km Length=0.0159858 bus1=p2udm2417.1.2 bus2=p2ulv22221.1.2 switch=n enabled=y phases=2 Linecode=1P_UG_AL_1/0_Brenau_0_416_0_2_2_2_2

New Line.l(r:p2udm2416-p2ulv19271) Units=km Length=0.0130446 bus1=p2udm2416.1.2 bus2=p2ulv19271.1.2 switch=n enabled=y phases=2 Linecode=1P_UG_AL_1/0_Brenau_0_416_0_2_2_2_2

New Line.l(r:p2udm2416-p2udm2417) Units=km Length=0.00941977 bus1=p2udm2417.1.2 bus2=p2udm2416.1.2 switch=n enabled=y phases=2 Linecode=1P_UG_AL_1/0_Brenau_0_416_0_2_2_2_2

New Line.l(r:p2udm2417-p2udt650lv) Units=km Length=0.0188261 bus1=p2udt650lv.1.2 bus2=p2udm2417.1.2 switch=n enabled=y phases=2 Linecode=1P_UG_AL_4/0_Sweetbriar_0_416_0_2_2_2_2

New Line.l(r:p2udt667lv-p2ulv706) Units=km Length=0.0167766 bus1=p2udt667lv.1.2 bus2=p2ulv706.1.2 switch=n enabled=y phases=2 Linecode=1P_UG_AL_1/0_Brenau_0_416_0_2_2_2_2

New Line.l(r:p2udt667lv-p2ulv13624) Units=km Length=0.0148296 bus1=p2udt667lv.1.2 bus2=p2ulv13624.1.2 switch=n enabled=y phases=2 Linecode=1P_UG_AL_1/0_Brenau_0_416_0_2_2_2_2

New Line.l(r:p2udm2483-p2ulv7005) Units=km Length=0.0153032 bus1=p2udm2483.1.2 bus2=p2ulv7005.1.2 switch=n enabled=y phases=2 Linecode=1P_UG_AL_4/0_Sweetbriar_0_416_0_2_2_2_2

New Line.l(r:p2udm2483-p2udt667lv) Units=km Length=0.0177302 bus1=p2udt667lv.1.2 bus2=p2udm2483.1.2 switch=n enabled=y phases=2 Linecode=1P_UG_AL_4/0_Sweetbriar_0_416_0_2_2_2_2

New Line.l(r:p2udm2484-p2ulv13404) Units=km Length=0.0136935 bus1=p2udm2484.1.2 bus2=p2ulv13404.1.2 switch=n enabled=y phases=2 Linecode=1P_UG_AL_1/0_Brenau_0_416_0_2_2_2_2

New Line.l(r:p2udm2486-p2ulv22490) Units=km Length=0.0199004 bus1=p2udm2486.1.2 bus2=p2ulv22490.1.2 switch=n enabled=y phases=2 Linecode=1P_UG_AL_1/0_Brenau_0_416_0_2_2_2_2

New Line.l(r:p2udm2484-p2udm2486) Units=km Length=0.00847925 bus1=p2udm2484.1.2 bus2=p2udm2486.1.2 switch=n enabled=y phases=2 Linecode=1P_UG_AL_1/0_Brenau_0_416_0_2_2_2_2

New Line.l(r:p2udm2484-p2udt667lv) Units=km Length=0.00551888 bus1=p2udt667lv.1.2 bus2=p2udm2484.1.2 switch=n enabled=y phases=2 Linecode=1P_UG_AL_4/0_Sweetbriar_0_416_0_2_2_2_2

New Line.l(r:p2udt668lv-p2ulv1206) Units=km Length=0.017574800000000005 bus1=p2udt668lv.1.2 bus2=p2ulv1206.1.2 switch=n enabled=y phases=2 Linecode=1P_OH_AL_2/0_Rucina_0_416_0_2_2_2_2

New Line.l(r:p2udt668lv-p2ulv6047) Units=km Length=0.0157222 bus1=p2udt668lv.1.2 bus2=p2ulv6047.1.2 switch=n enabled=y phases=2 Linecode=1P_OH_AL_2/0_Rucina_0_416_0_2_2_2_2

New Line.l(r:p2udm2487-p2ulv707) Units=km Length=0.0141795 bus1=p2udm2487.1.2 bus2=p2ulv707.1.2 switch=n enabled=y phases=2 Linecode=1P_OH_AL_2/0_Rucina_0_416_0_2_2_2_2

New Line.l(r:p2udm2492-p2ulv19288) Units=km Length=0.016554 bus1=p2udm2492.1.2 bus2=p2ulv19288.1.2 switch=n enabled=y phases=2 Linecode=1P_OH_AL_2/0_Rucina_0_416_0_2_2_2_2

New Line.l(r:p2udm2487-p2udm2492) Units=km Length=0.03964 bus1=p2udm2487.1.2 bus2=p2udm2492.1.2 switch=n enabled=y phases=2 Linecode=1P_OH_AL_4/0_Zuzara_0_416_0_2_2_2_2

New Line.l(r:p2udm2487-p2udt668lv) Units=km Length=0.0649405 bus1=p2udt668lv.1.2 bus2=p2udm2487.1.2 switch=n enabled=y phases=2 Linecode=1P_OH_AL_4/0_Zuzara_0_416_0_2_2_2_2

New Line.l(r:p2udm2490-p2ulv13152) Units=km Length=0.0152467 bus1=p2udm2490.1.2 bus2=p2ulv13152.1.2 switch=n enabled=y phases=2 Linecode=1P_OH_AL_2/0_Rucina_0_416_0_2_2_2_2

New Line.l(r:p2udm2490-p2ulv18169) Units=km Length=0.0163507 bus1=p2udm2490.1.2 bus2=p2ulv18169.1.2 switch=n enabled=y phases=2 Linecode=1P_OH_AL_2/0_Rucina_0_416_0_2_2_2_2

New Line.l(r:p2udm2490-p2udt668lv) Units=km Length=0.0173533 bus1=p2udt668lv.1.2 bus2=p2udm2490.1.2 switch=n enabled=y phases=2 Linecode=1P_OH_AL_2/0_Rucina_0_416_0_2_2_2_2

New Line.l(r:p2udt669lv-p2ulv708) Units=km Length=0.013894700000000001 bus1=p2udt669lv.1.2 bus2=p2ulv708.1.2 switch=n enabled=y phases=2 Linecode=1P_UG_AL_1/0_Brenau_0_416_0_2_2_2_2

New Line.l(r:p2udt669lv-p2ulv964) Units=km Length=0.0138987 bus1=p2udt669lv.1.2 bus2=p2ulv964.1.2 switch=n enabled=y phases=2 Linecode=1P_UG_AL_1/0_Brenau_0_416_0_2_2_2_2

New Line.l(r:p2udm2496-p2ulv9591) Units=km Length=0.0158816 bus1=p2udm2496.1.2 bus2=p2ulv9591.1.2 switch=n enabled=y phases=2 Linecode=1P_UG_AL_1/0_Brenau_0_416_0_2_2_2_2

New Line.l(r:p2udm2496-p2ulv24028) Units=km Length=0.0162825 bus1=p2udm2496.1.2 bus2=p2ulv24028.1.2 switch=n enabled=y phases=2 Linecode=1P_UG_AL_1/0_Brenau_0_416_0_2_2_2_2

New Line.l(r:p2udm2496-p2udt669lv) Units=km Length=0.00948222 bus1=p2udt669lv.1.2 bus2=p2udm2496.1.2 switch=n enabled=y phases=2 Linecode=1P_UG_AL_4/0_Sweetbriar_0_416_0_2_2_2_2

New Line.l(r:p2udm2497-p2ulv21309) Units=km Length=0.015122200000000002 bus1=p2udm2497.1.2 bus2=p2ulv21309.1.2 switch=n enabled=y phases=2 Linecode=1P_UG_AL_1/0_Brenau_0_416_0_2_2_2_2

New Line.l(r:p2udm2495-p2ulv5112) Units=km Length=0.013424 bus1=p2udm2495.1.2 bus2=p2ulv5112.1.2 switch=n enabled=y phases=2 Linecode=1P_UG_AL_1/0_Brenau_0_416_0_2_2_2_2

New Line.l(r:p2udm2495-p2udm2497) Units=km Length=0.00947335 bus1=p2udm2497.1.2 bus2=p2udm2495.1.2 switch=n enabled=y phases=2 Linecode=1P_UG_AL_1/0_Brenau_0_416_0_2_2_2_2

New Line.l(r:p2udm2497-p2udt669lv) Units=km Length=0.00947335 bus1=p2udt669lv.1.2 bus2=p2udm2497.1.2 switch=n enabled=y phases=2 Linecode=1P_UG_AL_4/0_Sweetbriar_0_416_0_2_2_2_2

New Line.l(r:p2udt873lv-p2ulv2397) Units=km Length=0.015291800000000001 bus1=p2udt873lv.1.2 bus2=p2ulv2397.1.2 switch=n enabled=y phases=2 Linecode=1P_UG_AL_1/0_Brenau_0_416_0_2_2_2_2

New Line.l(r:p2udt873lv-p2ulv2899) Units=km Length=0.0170423 bus1=p2udt873lv.1.2 bus2=p2ulv2899.1.2 switch=n enabled=y phases=2 Linecode=1P_UG_AL_1/0_Brenau_0_416_0_2_2_2_2

New Line.l(r:p2udt873lv-p2ulv22474) Units=km Length=0.0157737 bus1=p2udt873lv.1.2 bus2=p2ulv22474.1.2 switch=n enabled=y phases=2 Linecode=1P_UG_AL_1/0_Brenau_0_416_0_2_2_2_2

New Line.l(r:p2udm3222-p2ulv933) Units=km Length=0.0170891 bus1=p2udm3222.1.2 bus2=p2ulv933.1.2 switch=n enabled=y phases=2 Linecode=1P_UG_AL_1/0_Brenau_0_416_0_2_2_2_2

New Line.l(r:p2udm3222-p2udt873lv) Units=km Length=0.00986747 bus1=p2udt873lv.1.2 bus2=p2udm3222.1.2 switch=n enabled=y phases=2 Linecode=1P_UG_AL_1/0_Brenau_0_416_0_2_2_2_2

New Line.l(r:p2udm3226-p2ulv24217) Units=km Length=0.0148743 bus1=p2udm3226.1.2 bus2=p2ulv24217.1.2 switch=n enabled=y phases=2 Linecode=1P_UG_AL_1/0_Brenau_0_416_0_2_2_2_2

New Line.l(r:p2udm3226-p2udt873lv) Units=km Length=0.0197208 bus1=p2udt873lv.1.2 bus2=p2udm3226.1.2 switch=n enabled=y phases=2 Linecode=1P_UG_AL_1/0_Brenau_0_416_0_2_2_2_2

New Line.l(r:p2udm3228-p2ulv3842) Units=km Length=0.011912 bus1=p2udm3228.1.2 bus2=p2ulv3842.1.2 switch=n enabled=y phases=2 Linecode=1P_UG_AL_1/0_Brenau_0_416_0_2_2_2_2

New Line.l(r:p2udm3227-p2ulv934) Units=km Length=0.0173358 bus1=p2udm3227.1.2 bus2=p2ulv934.1.2 switch=n enabled=y phases=2 Linecode=1P_UG_AL_1/0_Brenau_0_416_0_2_2_2_2

New Line.l(r:p2udm3227-p2udm3228) Units=km Length=0.009860830000000001 bus1=p2udm3228.1.2 bus2=p2udm3227.1.2 switch=n enabled=y phases=2 Linecode=1P_UG_AL_1/0_Brenau_0_416_0_2_2_2_2

New Line.l(r:p2udm3228-p2udt874lv) Units=km Length=0.009859990000000003 bus1=p2udt874lv.1.2 bus2=p2udm3228.1.2 switch=n enabled=y phases=2 Linecode=1P_UG_AL_2/0_Converse_0_416_0_2_2_2_2

New Line.l(r:p2udm3230-p2ulv13827) Units=km Length=0.017857000000000005 bus1=p2udm3230.1.2 bus2=p2ulv13827.1.2 switch=n enabled=y phases=2 Linecode=1P_UG_AL_1/0_Brenau_0_416_0_2_2_2_2

New Line.l(r:p2udm3230-p2ulv22217) Units=km Length=0.017942 bus1=p2udm3230.1.2 bus2=p2ulv22217.1.2 switch=n enabled=y phases=2 Linecode=1P_UG_AL_1/0_Brenau_0_416_0_2_2_2_2

New Line.l(r:p2udm3229-p2ulv6283) Units=km Length=0.0145029 bus1=p2udm3229.1.2 bus2=p2ulv6283.1.2 switch=n enabled=y phases=2 Linecode=1P_UG_AL_1/0_Brenau_0_416_0_2_2_2_2

New Line.l(r:p2udm3229-p2udm3230) Units=km Length=0.009860830000000001 bus1=p2udm3230.1.2 bus2=p2udm3229.1.2 switch=n enabled=y phases=2 Linecode=1P_UG_AL_1/0_Brenau_0_416_0_2_2_2_2

New Line.l(r:p2udm3230-p2udt874lv) Units=km Length=0.00986747 bus1=p2udt874lv.1.2 bus2=p2udm3230.1.2 switch=n enabled=y phases=2 Linecode=1P_UG_AL_4/0_Sweetbriar_0_416_0_2_2_2_2

New Line.l(r:p2udt875lv-p2ulv935) Units=km Length=0.0152047 bus1=p2udt875lv.1.2 bus2=p2ulv935.1.2 switch=n enabled=y phases=2 Linecode=1P_UG_AL_1/0_Brenau_0_416_0_2_2_2_2

New Line.l(r:p2udm3234-p2ulv8650) Units=km Length=0.0166202 bus1=p2udm3234.1.2 bus2=p2ulv8650.1.2 switch=n enabled=y phases=2 Linecode=1P_UG_AL_4/0_Sweetbriar_0_416_0_2_2_2_2

New Line.l(r:p2udm3233-p2ulv4337) Units=km Length=0.0167708 bus1=p2udm3233.1.2 bus2=p2ulv4337.1.2 switch=n enabled=y phases=2 Linecode=1P_UG_AL_1/0_Brenau_0_416_0_2_2_2_2

New Line.l(r:p2udm3233-p2udm3234) Units=km Length=0.00953211 bus1=p2udm3234.1.2 bus2=p2udm3233.1.2 switch=n enabled=y phases=2 Linecode=1P_UG_AL_1/0_Brenau_0_416_0_2_2_2_2

New Line.l(r:p2udm3234-p2udt875lv) Units=km Length=0.00952691 bus1=p2udt875lv.1.2 bus2=p2udm3234.1.2 switch=n enabled=y phases=2 Linecode=1P_UG_AL_4/0_Sweetbriar_0_416_0_2_2_2_2

New Line.l(r:p2udm3235-p2ulv17485) Units=km Length=0.0163506 bus1=p2udm3235.1.2 bus2=p2ulv17485.1.2 switch=n enabled=y phases=2 Linecode=1P_UG_AL_1/0_Brenau_0_416_0_2_2_2_2

New Line.l(r:p2udm3235-p2ulv21280) Units=km Length=0.0151935 bus1=p2udm3235.1.2 bus2=p2ulv21280.1.2 switch=n enabled=y phases=2 Linecode=1P_UG_AL_1/0_Brenau_0_416_0_2_2_2_2

New Line.l(r:p2udm3235-p2udt875lv) Units=km Length=0.00953211 bus1=p2udt875lv.1.2 bus2=p2udm3235.1.2 switch=n enabled=y phases=2 Linecode=1P_UG_AL_4/0_Sweetbriar_0_416_0_2_2_2_2

New Line.l(r:p2udm3238-p2ulv10029) Units=km Length=0.0167381 bus1=p2udm3238.1.2 bus2=p2ulv10029.1.2 switch=n enabled=y phases=2 Linecode=1P_UG_AL_1/0_Brenau_0_416_0_2_2_2_2

New Line.l(r:p2udm3238-p2ulv11478) Units=km Length=0.0140842 bus1=p2udm3238.1.2 bus2=p2ulv11478.1.2 switch=n enabled=y phases=2 Linecode=1P_UG_AL_1/0_Brenau_0_416_0_2_2_2_2

New Line.l(r:p2udm3239-p2ulv10518) Units=km Length=0.0137391 bus1=p2udm3239.1.2 bus2=p2ulv10518.1.2 switch=n enabled=y phases=2 Linecode=1P_UG_AL_1/0_Brenau_0_416_0_2_2_2_2

New Line.l(r:p2udm3238-p2udm3239) Units=km Length=0.00898578 bus1=p2udm3238.1.2 bus2=p2udm3239.1.2 switch=n enabled=y phases=2 Linecode=1P_UG_AL_1/0_Brenau_0_416_0_2_2_2_2

New Line.l(r:p2udm3238-p2udt876lv) Units=km Length=0.0066064 bus1=p2udt876lv.1.2 bus2=p2udm3238.1.2 switch=n enabled=y phases=2 Linecode=1P_UG_AL_4/0_Sweetbriar_0_416_0_2_2_2_2

New Line.l(r:p2udm3242-p2ulv23335) Units=km Length=0.0140809 bus1=p2udm3242.1.2 bus2=p2ulv23335.1.2 switch=n enabled=y phases=2 Linecode=1P_UG_AL_1/0_Brenau_0_416_0_2_2_2_2

New Line.l(r:p2udm3241-p2ulv20631) Units=km Length=0.0163781 bus1=p2udm3241.1.2 bus2=p2ulv20631.1.2 switch=n enabled=y phases=2 Linecode=1P_UG_AL_1/0_Brenau_0_416_0_2_2_2_2

New Line.l(r:p2udm3237-p2ulv936) Units=km Length=0.014295300000000002 bus1=p2udm3237.1.2 bus2=p2ulv936.1.2 switch=n enabled=y phases=2 Linecode=1P_UG_AL_1/0_Brenau_0_416_0_2_2_2_2

New Line.l(r:p2udm3237-p2udm3241) Units=km Length=0.00799978 bus1=p2udm3241.1.2 bus2=p2udm3237.1.2 switch=n enabled=y phases=2 Linecode=1P_UG_AL_1/0_Brenau_0_416_0_2_2_2_2

New Line.l(r:p2udm3241-p2udm3242) Units=km Length=0.00799978 bus1=p2udm3242.1.2 bus2=p2udm3241.1.2 switch=n enabled=y phases=2 Linecode=1P_UG_AL_4/0_Sweetbriar_0_416_0_2_2_2_2

New Line.l(r:p2udm3242-p2udt876lv) Units=km Length=0.00659824 bus1=p2udt876lv.1.2 bus2=p2udm3242.1.2 switch=n enabled=y phases=2 Linecode=1P_UG_AL_4/0_Sweetbriar_0_416_0_2_2_2_2

New Line.l(r:p2udt877lv-p2ulv937) Units=km Length=0.0149746 bus1=p2udt877lv.1.2 bus2=p2ulv937.1.2 switch=n enabled=y phases=2 Linecode=1P_UG_AL_1/0_Brenau_0_416_0_2_2_2_2

New Line.l(r:p2udt877lv-p2ulv19751) Units=km Length=0.0160231 bus1=p2udt877lv.1.2 bus2=p2ulv19751.1.2 switch=n enabled=y phases=2 Linecode=1P_UG_AL_1/0_Brenau_0_416_0_2_2_2_2

New Line.l(r:p2udm3244-p2ulv7728) Units=km Length=0.0165083 bus1=p2udm3244.1.2 bus2=p2ulv7728.1.2 switch=n enabled=y phases=2 Linecode=1P_UG_AL_1/0_Brenau_0_416_0_2_2_2_2

New Line.l(r:p2udm3244-p2udt877lv) Units=km Length=0.0188287 bus1=p2udt877lv.1.2 bus2=p2udm3244.1.2 switch=n enabled=y phases=2 Linecode=1P_UG_AL_1/0_Brenau_0_416_0_2_2_2_2

New Line.l(r:p2udm3246-p2ulv22679) Units=km Length=0.0150214 bus1=p2udm3246.1.2 bus2=p2ulv22679.1.2 switch=n enabled=y phases=2 Linecode=1P_UG_AL_1/0_Brenau_0_416_0_2_2_2_2

New Line.l(r:p2udm3246-p2udt877lv) Units=km Length=0.0188111 bus1=p2udt877lv.1.2 bus2=p2udm3246.1.2 switch=n enabled=y phases=2 Linecode=1P_UG_AL_1/0_Brenau_0_416_0_2_2_2_2

New Line.l(r:p2udt878lv-p2ulv21745) Units=km Length=0.011935 bus1=p2udt878lv.1.2 bus2=p2ulv21745.1.2 switch=n enabled=y phases=2 Linecode=1P_UG_AL_1/0_Brenau_0_416_0_2_2_2_2

New Line.l(r:p2udm3247-p2ulv938) Units=km Length=0.0154593 bus1=p2udm3247.1.2 bus2=p2ulv938.1.2 switch=n enabled=y phases=2 Linecode=1P_UG_AL_1/0_Brenau_0_416_0_2_2_2_2

New Line.l(r:p2udm3247-p2udt878lv) Units=km Length=0.009770830000000001 bus1=p2udt878lv.1.2 bus2=p2udm3247.1.2 switch=n enabled=y phases=2 Linecode=1P_UG_AL_1/0_Brenau_0_416_0_2_2_2_2

New Line.l(r:p2udm3248-p2ulv18588) Units=km Length=0.0161999 bus1=p2udm3248.1.2 bus2=p2ulv18588.1.2 switch=n enabled=y phases=2 Linecode=1P_UG_AL_4/0_Sweetbriar_0_416_0_2_2_2_2

New Line.l(r:p2udm3248-p2udt878lv) Units=km Length=0.0195521 bus1=p2udt878lv.1.2 bus2=p2udm3248.1.2 switch=n enabled=y phases=2 Linecode=1P_UG_AL_4/0_Sweetbriar_0_416_0_2_2_2_2

New Line.l(r:p2udt879lv-p2ulv6754) Units=km Length=0.0178669 bus1=p2udt879lv.1.2 bus2=p2ulv6754.1.2 switch=n enabled=y phases=2 Linecode=1P_OH_AL_2/0_Rucina_0_416_0_2_2_2_2

New Line.l(r:p2udm3250-p2ulv939) Units=km Length=0.016323 bus1=p2udm3250.1.2 bus2=p2ulv939.1.2 switch=n enabled=y phases=2 Linecode=1P_UG_AL_1/0_Brenau_0_416_0_2_2_2_2

New Line.l(r:p2udm3250-p2udt879lv) Units=km Length=0.0294746 bus1=p2udt879lv.1.2 bus2=p2udm3250.1.2 switch=n enabled=y phases=2 Linecode=1P_OH_AL_4/0_Zuzara_0_416_0_2_2_2_2

New Line.l(r:p2udt899lv-p2ulv2418) Units=km Length=0.0141586 bus1=p2udt899lv.1.2 bus2=p2ulv2418.1.2 switch=n enabled=y phases=2 Linecode=1P_UG_AL_1/0_Brenau_0_416_0_2_2_2_2

New Line.l(r:p2udt899lv-p2ulv9124) Units=km Length=0.0172324 bus1=p2udt899lv.1.2 bus2=p2ulv9124.1.2 switch=n enabled=y phases=2 Linecode=1P_UG_AL_1/0_Brenau_0_416_0_2_2_2_2
