New Transformer.tr(r:p3udt143-p3udt143lv) phases=1 windings=3 %loadloss=0.798816 %Noloadloss=0.37 normhkva=55.0 wdg=1 conn=wye bus=p3udt143.1 Kv=7.199560000000001 kva=50.0 EmergHKVA=75.0 %r=0.266272 wdg=2 conn=wye bus=p3udt143lv.1.0 Kv=0.120089 kva=50.0 EmergHKVA=75.0 %r=0.532544 wdg=3 conn=wye bus=p3udt143lv.0.2 Kv=0.120089 kva=50.0 EmergHKVA=75.0 %r=0.532544 XHL=2.4 XLT=2.4 XHT=1.6

New Transformer.tr(r:p3udt144-p3udt144lv) phases=1 windings=3 %loadloss=0.798816 %Noloadloss=0.37 normhkva=55.0 wdg=1 conn=wye bus=p3udt144.2 Kv=7.199560000000001 kva=50.0 EmergHKVA=75.0 %r=0.266272 wdg=2 conn=wye bus=p3udt144lv.1.0 Kv=0.120089 kva=50.0 EmergHKVA=75.0 %r=0.532544 wdg=3 conn=wye bus=p3udt144lv.0.2 Kv=0.120089 kva=50.0 EmergHKVA=75.0 %r=0.532544 XHL=2.4 XLT=2.4 XHT=1.6

New Transformer.tr(r:p3udt393-p3udt393lv) phases=1 windings=3 %loadloss=0.49926 %Noloadloss=0.38 normhkva=82.5 wdg=1 conn=wye bus=p3udt393.1 Kv=7.199560000000001 kva=75.0 EmergHKVA=112.5 %r=0.16642 wdg=2 conn=wye bus=p3udt393lv.1.0 Kv=0.120089 kva=75.0 EmergHKVA=112.5 %r=0.33284 wdg=3 conn=wye bus=p3udt393lv.0.2 Kv=0.120089 kva=75.0 EmergHKVA=112.5 %r=0.33284 XHL=2.4 XLT=2.4 XHT=1.6

New Transformer.tr(r:p3udt480-p3udt480lv) phases=1 windings=3 %loadloss=0.798816 %Noloadloss=0.37 normhkva=55.0 wdg=1 conn=wye bus=p3udt480.2 Kv=7.199560000000001 kva=50.0 EmergHKVA=75.0 %r=0.266272 wdg=2 conn=wye bus=p3udt480lv.1.0 Kv=0.120089 kva=50.0 EmergHKVA=75.0 %r=0.532544 wdg=3 conn=wye bus=p3udt480lv.0.2 Kv=0.120089 kva=50.0 EmergHKVA=75.0 %r=0.532544 XHL=2.4 XLT=2.4 XHT=1.6

New Transformer.tr(r:p3udt481-p3udt481lv) phases=1 windings=3 %loadloss=0.49926 %Noloadloss=0.38 normhkva=82.5 wdg=1 conn=wye bus=p3udt481.2 Kv=7.199560000000001 kva=75.0 EmergHKVA=112.5 %r=0.16642 wdg=2 conn=wye bus=p3udt481lv.1.0 Kv=0.120089 kva=75.0 EmergHKVA=112.5 %r=0.33284 wdg=3 conn=wye bus=p3udt481lv.0.2 Kv=0.120089 kva=75.0 EmergHKVA=112.5 %r=0.33284 XHL=2.4 XLT=2.4 XHT=1.6

New Transformer.tr(r:p3udt482-p3udt482lv) phases=1 windings=3 %loadloss=0.798816 %Noloadloss=0.37 normhkva=55.0 wdg=1 conn=wye bus=p3udt482.3 Kv=7.199560000000001 kva=50.0 EmergHKVA=75.0 %r=0.266272 wdg=2 conn=wye bus=p3udt482lv.1.0 Kv=0.120089 kva=50.0 EmergHKVA=75.0 %r=0.532544 wdg=3 conn=wye bus=p3udt482lv.0.2 Kv=0.120089 kva=50.0 EmergHKVA=75.0 %r=0.532544 XHL=2.4 XLT=2.4 XHT=1.6

New Transformer.tr(r:p3udt886-p3udt886lv) phases=1 windings=3 %loadloss=0.49926 %Noloadloss=0.38 normhkva=82.5 wdg=1 conn=wye bus=p3udt886.3 Kv=7.199560000000001 kva=75.0 EmergHKVA=112.5 %r=0.16642 wdg=2 conn=wye bus=p3udt886lv.1.0 Kv=0.120089 kva=75.0 EmergHKVA=112.5 %r=0.33284 wdg=3 conn=wye bus=p3udt886lv.0.2 Kv=0.120089 kva=75.0 EmergHKVA=112.5 %r=0.33284 XHL=2.4 XLT=2.4 XHT=1.6

New Transformer.tr(r:p3udt887-p3udt887lv) phases=1 windings=3 %loadloss=0.49926 %Noloadloss=0.38 normhkva=82.5 wdg=1 conn=wye bus=p3udt887.1 Kv=7.199560000000001 kva=75.0 EmergHKVA=112.5 %r=0.16642 wdg=2 conn=wye bus=p3udt887lv.1.0 Kv=0.120089 kva=75.0 EmergHKVA=112.5 %r=0.33284 wdg=3 conn=wye bus=p3udt887lv.0.2 Kv=0.120089 kva=75.0 EmergHKVA=112.5 %r=0.33284 XHL=2.4 XLT=2.4 XHT=1.6

New Transformer.tr(r:p3udt888-p3udt888lv) phases=1 windings=3 %loadloss=0.49926 %Noloadloss=0.38 normhkva=82.5 wdg=1 conn=wye bus=p3udt888.3 Kv=7.199560000000001 kva=75.0 EmergHKVA=112.5 %r=0.16642 wdg=2 conn=wye bus=p3udt888lv.1.0 Kv=0.120089 kva=75.0 EmergHKVA=112.5 %r=0.33284 wdg=3 conn=wye bus=p3udt888lv.0.2 Kv=0.120089 kva=75.0 EmergHKVA=112.5 %r=0.33284 XHL=2.4 XLT=2.4 XHT=1.6

New Transformer.tr(r:p3udt889-p3udt889lv) phases=1 windings=3 %loadloss=0.49926 %Noloadloss=0.38 normhkva=82.5 wdg=1 conn=wye bus=p3udt889.3 Kv=7.199560000000001 kva=75.0 EmergHKVA=112.5 %r=0.16642 wdg=2 conn=wye bus=p3udt889lv.1.0 Kv=0.120089 kva=75.0 EmergHKVA=112.5 %r=0.33284 wdg=3 conn=wye bus=p3udt889lv.0.2 Kv=0.120089 kva=75.0 EmergHKVA=112.5 %r=0.33284 XHL=2.4 XLT=2.4 XHT=1.6

New Transformer.tr(r:p3udt1213-p3udt1213lv) phases=1 windings=3 %loadloss=0.798816 %Noloadloss=0.37 normhkva=55.0 wdg=1 conn=wye bus=p3udt1213.2 Kv=7.199560000000001 kva=50.0 EmergHKVA=75.0 %r=0.266272 wdg=2 conn=wye bus=p3udt1213lv.1.0 Kv=0.120089 kva=50.0 EmergHKVA=75.0 %r=0.532544 wdg=3 conn=wye bus=p3udt1213lv.0.2 Kv=0.120089 kva=50.0 EmergHKVA=75.0 %r=0.532544 XHL=2.4 XLT=2.4 XHT=1.6

New Transformer.tr(r:p3udt1649-p3udt1649lv) phases=1 windings=3 %loadloss=0.49926 %Noloadloss=0.38 normhkva=82.5 wdg=1 conn=wye bus=p3udt1649.1 Kv=7.199560000000001 kva=75.0 EmergHKVA=112.5 %r=0.16642 wdg=2 conn=wye bus=p3udt1649lv.1.0 Kv=0.120089 kva=75.0 EmergHKVA=112.5 %r=0.33284 wdg=3 conn=wye bus=p3udt1649lv.0.2 Kv=0.120089 kva=75.0 EmergHKVA=112.5 %r=0.33284 XHL=2.4 XLT=2.4 XHT=1.6

New Transformer.tr(r:p3udt1650-p3udt1650lv) phases=1 windings=3 %loadloss=0.798816 %Noloadloss=0.37 normhkva=55.0 wdg=1 conn=wye bus=p3udt1650.1 Kv=7.199560000000001 kva=50.0 EmergHKVA=75.0 %r=0.266272 wdg=2 conn=wye bus=p3udt1650lv.1.0 Kv=0.120089 kva=50.0 EmergHKVA=75.0 %r=0.532544 wdg=3 conn=wye bus=p3udt1650lv.0.2 Kv=0.120089 kva=50.0 EmergHKVA=75.0 %r=0.532544 XHL=2.4 XLT=2.4 XHT=1.6

New Transformer.tr(r:p3udt1651-p3udt1651lv) phases=1 windings=3 %loadloss=0.49926 %Noloadloss=0.38 normhkva=82.5 wdg=1 conn=wye bus=p3udt1651.3 Kv=7.199560000000001 kva=75.0 EmergHKVA=112.5 %r=0.16642 wdg=2 conn=wye bus=p3udt1651lv.1.0 Kv=0.120089 kva=75.0 EmergHKVA=112.5 %r=0.33284 wdg=3 conn=wye bus=p3udt1651lv.0.2 Kv=0.120089 kva=75.0 EmergHKVA=112.5 %r=0.33284 XHL=2.4 XLT=2.4 XHT=1.6

New Transformer.tr(r:p3udt1652-p3udt1652lv) phases=1 windings=3 %loadloss=0.49926 %Noloadloss=0.38 normhkva=82.5 wdg=1 conn=wye bus=p3udt1652.2 Kv=7.199560000000001 kva=75.0 EmergHKVA=112.5 %r=0.16642 wdg=2 conn=wye bus=p3udt1652lv.1.0 Kv=0.120089 kva=75.0 EmergHKVA=112.5 %r=0.33284 wdg=3 conn=wye bus=p3udt1652lv.0.2 Kv=0.120089 kva=75.0 EmergHKVA=112.5 %r=0.33284 XHL=2.4 XLT=2.4 XHT=1.6

New Transformer.tr(r:p3udt1655-p3udt1655lv) phases=1 windings=3 %loadloss=0.798816 %Noloadloss=0.37 normhkva=55.0 wdg=1 conn=wye bus=p3udt1655.2 Kv=7.199560000000001 kva=50.0 EmergHKVA=75.0 %r=0.266272 wdg=2 conn=wye bus=p3udt1655lv.1.0 Kv=0.120089 kva=50.0 EmergHKVA=75.0 %r=0.532544 wdg=3 conn=wye bus=p3udt1655lv.0.2 Kv=0.120089 kva=50.0 EmergHKVA=75.0 %r=0.532544 XHL=2.4 XLT=2.4 XHT=1.6

New Transformer.tr(r:p3udt1945-p3udt1945lv) phases=1 windings=3 %loadloss=0.49926 %Noloadloss=0.38 normhkva=82.5 wdg=1 conn=wye bus=p3udt1945.2 Kv=7.199560000000001 kva=75.0 EmergHKVA=112.5 %r=0.16642 wdg=2 conn=wye bus=p3udt1945lv.1.0 Kv=0.120089 kva=75.0 EmergHKVA=112.5 %r=0.33284 wdg=3 conn=wye bus=p3udt1945lv.0.2 Kv=0.120089 kva=75.0 EmergHKVA=112.5 %r=0.33284 XHL=2.4 XLT=2.4 XHT=1.6

New Transformer.tr(r:p3udt1946-p3udt1946lv) phases=1 windings=3 %loadloss=0.798816 %Noloadloss=0.37 normhkva=55.0 wdg=1 conn=wye bus=p3udt1946.2 Kv=7.199560000000001 kva=50.0 EmergHKVA=75.0 %r=0.266272 wdg=2 conn=wye bus=p3udt1946lv.1.0 Kv=0.120089 kva=50.0 EmergHKVA=75.0 %r=0.532544 wdg=3 conn=wye bus=p3udt1946lv.0.2 Kv=0.120089 kva=50.0 EmergHKVA=75.0 %r=0.532544 XHL=2.4 XLT=2.4 XHT=1.6

New Transformer.tr(r:p3udt2374-p3udt2374lv) phases=1 windings=3 %loadloss=0.798816 %Noloadloss=0.37 normhkva=55.0 wdg=1 conn=wye bus=p3udt2374.2 Kv=7.199560000000001 kva=50.0 EmergHKVA=75.0 %r=0.266272 wdg=2 conn=wye bus=p3udt2374lv.1.0 Kv=0.120089 kva=50.0 EmergHKVA=75.0 %r=0.532544 wdg=3 conn=wye bus=p3udt2374lv.0.2 Kv=0.120089 kva=50.0 EmergHKVA=75.0 %r=0.532544 XHL=2.4 XLT=2.4 XHT=1.6

New Transformer.tr(r:p3udt2378-p3udt2378lv) phases=1 windings=3 %loadloss=0.798816 %Noloadloss=0.37 normhkva=55.0 wdg=1 conn=wye bus=p3udt2378.1 Kv=7.199560000000001 kva=50.0 EmergHKVA=75.0 %r=0.266272 wdg=2 conn=wye bus=p3udt2378lv.1.0 Kv=0.120089 kva=50.0 EmergHKVA=75.0 %r=0.532544 wdg=3 conn=wye bus=p3udt2378lv.0.2 Kv=0.120089 kva=50.0 EmergHKVA=75.0 %r=0.532544 XHL=2.4 XLT=2.4 XHT=1.6

New Transformer.tr(r:p3udt2380-p3udt2380lv) phases=1 windings=3 %loadloss=0.798816 %Noloadloss=0.37 normhkva=55.0 wdg=1 conn=wye bus=p3udt2380.1 Kv=7.199560000000001 kva=50.0 EmergHKVA=75.0 %r=0.266272 wdg=2 conn=wye bus=p3udt2380lv.1.0 Kv=0.120089 kva=50.0 EmergHKVA=75.0 %r=0.532544 wdg=3 conn=wye bus=p3udt2380lv.0.2 Kv=0.120089 kva=50.0 EmergHKVA=75.0 %r=0.532544 XHL=2.4 XLT=2.4 XHT=1.6

New Transformer.tr(r:p3udt2381-p3udt2381lv) phases=1 windings=3 %loadloss=0.49926 %Noloadloss=0.38 normhkva=82.5 wdg=1 conn=wye bus=p3udt2381.3 Kv=7.199560000000001 kva=75.0 EmergHKVA=112.5 %r=0.16642 wdg=2 conn=wye bus=p3udt2381lv.1.0 Kv=0.120089 kva=75.0 EmergHKVA=112.5 %r=0.33284 wdg=3 conn=wye bus=p3udt2381lv.0.2 Kv=0.120089 kva=75.0 EmergHKVA=112.5 %r=0.33284 XHL=2.4 XLT=2.4 XHT=1.6

New Transformer.tr(r:p3udt2382-p3udt2382lv) phases=1 windings=3 %loadloss=0.49926 %Noloadloss=0.38 normhkva=82.5 wdg=1 conn=wye bus=p3udt2382.1 Kv=7.199560000000001 kva=75.0 EmergHKVA=112.5 %r=0.16642 wdg=2 conn=wye bus=p3udt2382lv.1.0 Kv=0.120089 kva=75.0 EmergHKVA=112.5 %r=0.33284 wdg=3 conn=wye bus=p3udt2382lv.0.2 Kv=0.120089 kva=75.0 EmergHKVA=112.5 %r=0.33284 XHL=2.4 XLT=2.4 XHT=1.6

New Transformer.tr(r:p3udt2594-p3udt2594lv) phases=1 windings=3 %loadloss=0.798816 %Noloadloss=0.37 normhkva=55.0 wdg=1 conn=wye bus=p3udt2594.1 Kv=7.199560000000001 kva=50.0 EmergHKVA=75.0 %r=0.266272 wdg=2 conn=wye bus=p3udt2594lv.1.0 Kv=0.120089 kva=50.0 EmergHKVA=75.0 %r=0.532544 wdg=3 conn=wye bus=p3udt2594lv.0.2 Kv=0.120089 kva=50.0 EmergHKVA=75.0 %r=0.532544 XHL=2.4 XLT=2.4 XHT=1.6

New Transformer.tr(r:p3udt2677-p3udt2677lv) phases=1 windings=3 %loadloss=0.798816 %Noloadloss=0.37 normhkva=55.0 wdg=1 conn=wye bus=p3udt2677.1 Kv=7.199560000000001 kva=50.0 EmergHKVA=75.0 %r=0.266272 wdg=2 conn=wye bus=p3udt2677lv.1.0 Kv=0.120089 kva=50.0 EmergHKVA=75.0 %r=0.532544 wdg=3 conn=wye bus=p3udt2677lv.0.2 Kv=0.120089 kva=50.0 EmergHKVA=75.0 %r=0.532544 XHL=2.4 XLT=2.4 XHT=1.6

New Transformer.tr(r:p3udt3089-p3udt3089lv) phases=1 windings=3 %loadloss=0.798816 %Noloadloss=0.37 normhkva=55.0 wdg=1 conn=wye bus=p3udt3089.1 Kv=7.199560000000001 kva=50.0 EmergHKVA=75.0 %r=0.266272 wdg=2 conn=wye bus=p3udt3089lv.1.0 Kv=0.120089 kva=50.0 EmergHKVA=75.0 %r=0.532544 wdg=3 conn=wye bus=p3udt3089lv.0.2 Kv=0.120089 kva=50.0 EmergHKVA=75.0 %r=0.532544 XHL=2.4 XLT=2.4 XHT=1.6

New Transformer.tr(r:p3udt3329-p3udt3329lv) phases=1 windings=3 %loadloss=0.49926 %Noloadloss=0.38 normhkva=82.5 wdg=1 conn=wye bus=p3udt3329.3 Kv=7.199560000000001 kva=75.0 EmergHKVA=112.5 %r=0.16642 wdg=2 conn=wye bus=p3udt3329lv.1.0 Kv=0.120089 kva=75.0 EmergHKVA=112.5 %r=0.33284 wdg=3 conn=wye bus=p3udt3329lv.0.2 Kv=0.120089 kva=75.0 EmergHKVA=112.5 %r=0.33284 XHL=2.4 XLT=2.4 XHT=1.6

New Transformer.tr(r:p3udt3790-p3udt3790lv) phases=1 windings=3 %loadloss=0.49926 %Noloadloss=0.38 normhkva=82.5 wdg=1 conn=wye bus=p3udt3790.3 Kv=7.199560000000001 kva=75.0 EmergHKVA=112.5 %r=0.16642 wdg=2 conn=wye bus=p3udt3790lv.1.0 Kv=0.120089 kva=75.0 EmergHKVA=112.5 %r=0.33284 wdg=3 conn=wye bus=p3udt3790lv.0.2 Kv=0.120089 kva=75.0 EmergHKVA=112.5 %r=0.33284 XHL=2.4 XLT=2.4 XHT=1.6

New Transformer.tr(r:p3udt3791-p3udt3791lv) phases=1 windings=3 %loadloss=0.49926 %Noloadloss=0.38 normhkva=82.5 wdg=1 conn=wye bus=p3udt3791.3 Kv=7.199560000000001 kva=75.0 EmergHKVA=112.5 %r=0.16642 wdg=2 conn=wye bus=p3udt3791lv.1.0 Kv=0.120089 kva=75.0 EmergHKVA=112.5 %r=0.33284 wdg=3 conn=wye bus=p3udt3791lv.0.2 Kv=0.120089 kva=75.0 EmergHKVA=112.5 %r=0.33284 XHL=2.4 XLT=2.4 XHT=1.6

New Transformer.tr(r:p3udt3794-p3udt3794lv) phases=1 windings=3 %loadloss=0.49926 %Noloadloss=0.38 normhkva=82.5 wdg=1 conn=wye bus=p3udt3794.1 Kv=7.199560000000001 kva=75.0 EmergHKVA=112.5 %r=0.16642 wdg=2 conn=wye bus=p3udt3794lv.1.0 Kv=0.120089 kva=75.0 EmergHKVA=112.5 %r=0.33284 wdg=3 conn=wye bus=p3udt3794lv.0.2 Kv=0.120089 kva=75.0 EmergHKVA=112.5 %r=0.33284 XHL=2.4 XLT=2.4 XHT=1.6

New Transformer.tr(r:p3udt4490-p3udt4490lv) phases=1 windings=3 %loadloss=0.798816 %Noloadloss=0.37 normhkva=55.0 wdg=1 conn=wye bus=p3udt4490.2 Kv=7.199560000000001 kva=50.0 EmergHKVA=75.0 %r=0.266272 wdg=2 conn=wye bus=p3udt4490lv.1.0 Kv=0.120089 kva=50.0 EmergHKVA=75.0 %r=0.532544 wdg=3 conn=wye bus=p3udt4490lv.0.2 Kv=0.120089 kva=50.0 EmergHKVA=75.0 %r=0.532544 XHL=2.4 XLT=2.4 XHT=1.6

New Transformer.tr(r:p3udt4497-p3udt4497lv) phases=1 windings=3 %loadloss=0.798816 %Noloadloss=0.472 normhkva=27.5 wdg=1 conn=wye bus=p3udt4497.3 Kv=7.199560000000001 kva=25.0 EmergHKVA=37.5 %r=0.266272 wdg=2 conn=wye bus=p3udt4497lv.1.0 Kv=0.120089 kva=25.0 EmergHKVA=37.5 %r=0.532544 wdg=3 conn=wye bus=p3udt4497lv.0.2 Kv=0.120089 kva=25.0 EmergHKVA=37.5 %r=0.532544 XHL=2.4 XLT=2.4 XHT=1.6

New Transformer.tr(r:p3udt4498-p3udt4498lv) phases=1 windings=3 %loadloss=0.49926 %Noloadloss=0.38 normhkva=82.5 wdg=1 conn=wye bus=p3udt4498.3 Kv=7.199560000000001 kva=75.0 EmergHKVA=112.5 %r=0.16642 wdg=2 conn=wye bus=p3udt4498lv.1.0 Kv=0.120089 kva=75.0 EmergHKVA=112.5 %r=0.33284 wdg=3 conn=wye bus=p3udt4498lv.0.2 Kv=0.120089 kva=75.0 EmergHKVA=112.5 %r=0.33284 XHL=2.4 XLT=2.4 XHT=1.6

New Transformer.tr(r:p3udt4499-p3udt4499lv) phases=1 windings=3 %loadloss=0.49926 %Noloadloss=0.38 normhkva=82.5 wdg=1 conn=wye bus=p3udt4499.2 Kv=7.199560000000001 kva=75.0 EmergHKVA=112.5 %r=0.16642 wdg=2 conn=wye bus=p3udt4499lv.1.0 Kv=0.120089 kva=75.0 EmergHKVA=112.5 %r=0.33284 wdg=3 conn=wye bus=p3udt4499lv.0.2 Kv=0.120089 kva=75.0 EmergHKVA=112.5 %r=0.33284 XHL=2.4 XLT=2.4 XHT=1.6

New Transformer.tr(r:p3udt4500-p3udt4500lv) phases=1 windings=3 %loadloss=0.49926 %Noloadloss=0.38 normhkva=82.5 wdg=1 conn=wye bus=p3udt4500.3 Kv=7.199560000000001 kva=75.0 EmergHKVA=112.5 %r=0.16642 wdg=2 conn=wye bus=p3udt4500lv.1.0 Kv=0.120089 kva=75.0 EmergHKVA=112.5 %r=0.33284 wdg=3 conn=wye bus=p3udt4500lv.0.2 Kv=0.120089 kva=75.0 EmergHKVA=112.5 %r=0.33284 XHL=2.4 XLT=2.4 XHT=1.6

New Transformer.tr(r:p3udt4501-p3udt4501lv) phases=1 windings=3 %loadloss=0.798816 %Noloadloss=0.472 normhkva=27.5 wdg=1 conn=wye bus=p3udt4501.2 Kv=7.199560000000001 kva=25.0 EmergHKVA=37.5 %r=0.266272 wdg=2 conn=wye bus=p3udt4501lv.1.0 Kv=0.120089 kva=25.0 EmergHKVA=37.5 %r=0.532544 wdg=3 conn=wye bus=p3udt4501lv.0.2 Kv=0.120089 kva=25.0 EmergHKVA=37.5 %r=0.532544 XHL=2.4 XLT=2.4 XHT=1.6

New Transformer.tr(r:p3udt4503-p3udt4503lv) phases=1 windings=3 %loadloss=0.49926 %Noloadloss=0.38 normhkva=82.5 wdg=1 conn=wye bus=p3udt4503.2 Kv=7.199560000000001 kva=75.0 EmergHKVA=112.5 %r=0.16642 wdg=2 conn=wye bus=p3udt4503lv.1.0 Kv=0.120089 kva=75.0 EmergHKVA=112.5 %r=0.33284 wdg=3 conn=wye bus=p3udt4503lv.0.2 Kv=0.120089 kva=75.0 EmergHKVA=112.5 %r=0.33284 XHL=2.4 XLT=2.4 XHT=1.6

New Transformer.tr(r:p3udt4715-p3udt4715lv) phases=1 windings=3 %loadloss=0.49926 %Noloadloss=0.38 normhkva=82.5 wdg=1 conn=wye bus=p3udt4715.3 Kv=7.199560000000001 kva=75.0 EmergHKVA=112.5 %r=0.16642 wdg=2 conn=wye bus=p3udt4715lv.1.0 Kv=0.120089 kva=75.0 EmergHKVA=112.5 %r=0.33284 wdg=3 conn=wye bus=p3udt4715lv.0.2 Kv=0.120089 kva=75.0 EmergHKVA=112.5 %r=0.33284 XHL=2.4 XLT=2.4 XHT=1.6

New Transformer.tr(r:p3udt4716-p3udt4716lv) phases=1 windings=3 %loadloss=0.798816 %Noloadloss=0.37 normhkva=55.0 wdg=1 conn=wye bus=p3udt4716.3 Kv=7.199560000000001 kva=50.0 EmergHKVA=75.0 %r=0.266272 wdg=2 conn=wye bus=p3udt4716lv.1.0 Kv=0.120089 kva=50.0 EmergHKVA=75.0 %r=0.532544 wdg=3 conn=wye bus=p3udt4716lv.0.2 Kv=0.120089 kva=50.0 EmergHKVA=75.0 %r=0.532544 XHL=2.4 XLT=2.4 XHT=1.6

New Transformer.tr(r:p3udt4718-p3udt4718lv) phases=1 windings=3 %loadloss=0.798816 %Noloadloss=0.37 normhkva=55.0 wdg=1 conn=wye bus=p3udt4718.1 Kv=7.199560000000001 kva=50.0 EmergHKVA=75.0 %r=0.266272 wdg=2 conn=wye bus=p3udt4718lv.1.0 Kv=0.120089 kva=50.0 EmergHKVA=75.0 %r=0.532544 wdg=3 conn=wye bus=p3udt4718lv.0.2 Kv=0.120089 kva=50.0 EmergHKVA=75.0 %r=0.532544 XHL=2.4 XLT=2.4 XHT=1.6

New Transformer.tr(r:p3udt4792-p3udt4792lv) phases=1 windings=3 %loadloss=0.798816 %Noloadloss=0.37 normhkva=55.0 wdg=1 conn=wye bus=p3udt4792.2 Kv=7.199560000000001 kva=50.0 EmergHKVA=75.0 %r=0.266272 wdg=2 conn=wye bus=p3udt4792lv.1.0 Kv=0.120089 kva=50.0 EmergHKVA=75.0 %r=0.532544 wdg=3 conn=wye bus=p3udt4792lv.0.2 Kv=0.120089 kva=50.0 EmergHKVA=75.0 %r=0.532544 XHL=2.4 XLT=2.4 XHT=1.6

New Transformer.tr(r:p3udt5191-p3udt5191lv) phases=1 windings=3 %loadloss=0.49926 %Noloadloss=0.38 normhkva=82.5 wdg=1 conn=wye bus=p3udt5191.2 Kv=7.199560000000001 kva=75.0 EmergHKVA=112.5 %r=0.16642 wdg=2 conn=wye bus=p3udt5191lv.1.0 Kv=0.120089 kva=75.0 EmergHKVA=112.5 %r=0.33284 wdg=3 conn=wye bus=p3udt5191lv.0.2 Kv=0.120089 kva=75.0 EmergHKVA=112.5 %r=0.33284 XHL=2.4 XLT=2.4 XHT=1.6

New Transformer.tr(r:p3udt5192-p3udt5192lv) phases=1 windings=3 %loadloss=0.49926 %Noloadloss=0.38 normhkva=82.5 wdg=1 conn=wye bus=p3udt5192.2 Kv=7.199560000000001 kva=75.0 EmergHKVA=112.5 %r=0.16642 wdg=2 conn=wye bus=p3udt5192lv.1.0 Kv=0.120089 kva=75.0 EmergHKVA=112.5 %r=0.33284 wdg=3 conn=wye bus=p3udt5192lv.0.2 Kv=0.120089 kva=75.0 EmergHKVA=112.5 %r=0.33284 XHL=2.4 XLT=2.4 XHT=1.6

New Transformer.tr(r:p3udt5386-p3udt5386lv) phases=1 windings=3 %loadloss=0.49926 %Noloadloss=0.38 normhkva=82.5 wdg=1 conn=wye bus=p3udt5386.3 Kv=7.199560000000001 kva=75.0 EmergHKVA=112.5 %r=0.16642 wdg=2 conn=wye bus=p3udt5386lv.1.0 Kv=0.120089 kva=75.0 EmergHKVA=112.5 %r=0.33284 wdg=3 conn=wye bus=p3udt5386lv.0.2 Kv=0.120089 kva=75.0 EmergHKVA=112.5 %r=0.33284 XHL=2.4 XLT=2.4 XHT=1.6

New Transformer.tr(r:p3udt5832-p3udt5832lv) phases=1 windings=3 %loadloss=0.798816 %Noloadloss=0.472 normhkva=27.5 wdg=1 conn=wye bus=p3udt5832.3 Kv=7.199560000000001 kva=25.0 EmergHKVA=37.5 %r=0.266272 wdg=2 conn=wye bus=p3udt5832lv.1.0 Kv=0.120089 kva=25.0 EmergHKVA=37.5 %r=0.532544 wdg=3 conn=wye bus=p3udt5832lv.0.2 Kv=0.120089 kva=25.0 EmergHKVA=37.5 %r=0.532544 XHL=2.4 XLT=2.4 XHT=1.6

New Transformer.tr(r:p3udt5833-p3udt5833lv) phases=1 windings=3 %loadloss=0.798816 %Noloadloss=0.472 normhkva=27.5 wdg=1 conn=wye bus=p3udt5833.2 Kv=7.199560000000001 kva=25.0 EmergHKVA=37.5 %r=0.266272 wdg=2 conn=wye bus=p3udt5833lv.1.0 Kv=0.120089 kva=25.0 EmergHKVA=37.5 %r=0.532544 wdg=3 conn=wye bus=p3udt5833lv.0.2 Kv=0.120089 kva=25.0 EmergHKVA=37.5 %r=0.532544 XHL=2.4 XLT=2.4 XHT=1.6

New Transformer.tr(r:p3udt5834-p3udt5834lv) phases=1 windings=3 %loadloss=0.798816 %Noloadloss=0.37 normhkva=55.0 wdg=1 conn=wye bus=p3udt5834.3 Kv=7.199560000000001 kva=50.0 EmergHKVA=75.0 %r=0.266272 wdg=2 conn=wye bus=p3udt5834lv.1.0 Kv=0.120089 kva=50.0 EmergHKVA=75.0 %r=0.532544 wdg=3 conn=wye bus=p3udt5834lv.0.2 Kv=0.120089 kva=50.0 EmergHKVA=75.0 %r=0.532544 XHL=2.4 XLT=2.4 XHT=1.6

New Transformer.tr(r:p3udt5835-p3udt5835lv) phases=1 windings=3 %loadloss=0.798816 %Noloadloss=0.472 normhkva=27.5 wdg=1 conn=wye bus=p3udt5835.1 Kv=7.199560000000001 kva=25.0 EmergHKVA=37.5 %r=0.266272 wdg=2 conn=wye bus=p3udt5835lv.1.0 Kv=0.120089 kva=25.0 EmergHKVA=37.5 %r=0.532544 wdg=3 conn=wye bus=p3udt5835lv.0.2 Kv=0.120089 kva=25.0 EmergHKVA=37.5 %r=0.532544 XHL=2.4 XLT=2.4 XHT=1.6

New Transformer.tr(r:p3udt5836-p3udt5836lv) phases=1 windings=3 %loadloss=0.49926 %Noloadloss=0.38 normhkva=82.5 wdg=1 conn=wye bus=p3udt5836.1 Kv=7.199560000000001 kva=75.0 EmergHKVA=112.5 %r=0.16642 wdg=2 conn=wye bus=p3udt5836lv.1.0 Kv=0.120089 kva=75.0 EmergHKVA=112.5 %r=0.33284 wdg=3 conn=wye bus=p3udt5836lv.0.2 Kv=0.120089 kva=75.0 EmergHKVA=112.5 %r=0.33284 XHL=2.4 XLT=2.4 XHT=1.6

New Transformer.tr(r:p3udt5837-p3udt5837lv) phases=1 windings=3 %loadloss=0.798816 %Noloadloss=0.37 normhkva=55.0 wdg=1 conn=wye bus=p3udt5837.1 Kv=7.199560000000001 kva=50.0 EmergHKVA=75.0 %r=0.266272 wdg=2 conn=wye bus=p3udt5837lv.1.0 Kv=0.120089 kva=50.0 EmergHKVA=75.0 %r=0.532544 wdg=3 conn=wye bus=p3udt5837lv.0.2 Kv=0.120089 kva=50.0 EmergHKVA=75.0 %r=0.532544 XHL=2.4 XLT=2.4 XHT=1.6

New Transformer.tr(r:p3udt5838-p3udt5838lv) phases=1 windings=3 %loadloss=0.798816 %Noloadloss=0.472 normhkva=27.5 wdg=1 conn=wye bus=p3udt5838.2 Kv=7.199560000000001 kva=25.0 EmergHKVA=37.5 %r=0.266272 wdg=2 conn=wye bus=p3udt5838lv.1.0 Kv=0.120089 kva=25.0 EmergHKVA=37.5 %r=0.532544 wdg=3 conn=wye bus=p3udt5838lv.0.2 Kv=0.120089 kva=25.0 EmergHKVA=37.5 %r=0.532544 XHL=2.4 XLT=2.4 XHT=1.6

New Transformer.tr(r:p3udt6034-p3udt6034lv) phases=1 windings=3 %loadloss=0.798816 %Noloadloss=0.37 normhkva=55.0 wdg=1 conn=wye bus=p3udt6034.3 Kv=7.199560000000001 kva=50.0 EmergHKVA=75.0 %r=0.266272 wdg=2 conn=wye bus=p3udt6034lv.1.0 Kv=0.120089 kva=50.0 EmergHKVA=75.0 %r=0.532544 wdg=3 conn=wye bus=p3udt6034lv.0.2 Kv=0.120089 kva=50.0 EmergHKVA=75.0 %r=0.532544 XHL=2.4 XLT=2.4 XHT=1.6

New Transformer.tr(r:p3udt6112-p3udt6112lv) phases=1 windings=3 %loadloss=0.798816 %Noloadloss=0.37 normhkva=55.0 wdg=1 conn=wye bus=p3udt6112.3 Kv=7.199560000000001 kva=50.0 EmergHKVA=75.0 %r=0.266272 wdg=2 conn=wye bus=p3udt6112lv.1.0 Kv=0.120089 kva=50.0 EmergHKVA=75.0 %r=0.532544 wdg=3 conn=wye bus=p3udt6112lv.0.2 Kv=0.120089 kva=50.0 EmergHKVA=75.0 %r=0.532544 XHL=2.4 XLT=2.4 XHT=1.6

New Transformer.tr(r:p3udt6465-p3udt6465lv) phases=1 windings=3 %loadloss=0.798816 %Noloadloss=0.37 normhkva=55.0 wdg=1 conn=wye bus=p3udt6465.1 Kv=7.199560000000001 kva=50.0 EmergHKVA=75.0 %r=0.266272 wdg=2 conn=wye bus=p3udt6465lv.1.0 Kv=0.120089 kva=50.0 EmergHKVA=75.0 %r=0.532544 wdg=3 conn=wye bus=p3udt6465lv.0.2 Kv=0.120089 kva=50.0 EmergHKVA=75.0 %r=0.532544 XHL=2.4 XLT=2.4 XHT=1.6

New Transformer.tr(r:p3udt6466-p3udt6466lv) phases=1 windings=3 %loadloss=0.798816 %Noloadloss=0.37 normhkva=55.0 wdg=1 conn=wye bus=p3udt6466.2 Kv=7.199560000000001 kva=50.0 EmergHKVA=75.0 %r=0.266272 wdg=2 conn=wye bus=p3udt6466lv.1.0 Kv=0.120089 kva=50.0 EmergHKVA=75.0 %r=0.532544 wdg=3 conn=wye bus=p3udt6466lv.0.2 Kv=0.120089 kva=50.0 EmergHKVA=75.0 %r=0.532544 XHL=2.4 XLT=2.4 XHT=1.6

New Transformer.tr(r:p3udt6685-p3udt6685lv) phases=1 windings=3 %loadloss=0.49926 %Noloadloss=0.38 normhkva=82.5 wdg=1 conn=wye bus=p3udt6685.1 Kv=7.199560000000001 kva=75.0 EmergHKVA=112.5 %r=0.16642 wdg=2 conn=wye bus=p3udt6685lv.1.0 Kv=0.120089 kva=75.0 EmergHKVA=112.5 %r=0.33284 wdg=3 conn=wye bus=p3udt6685lv.0.2 Kv=0.120089 kva=75.0 EmergHKVA=112.5 %r=0.33284 XHL=2.4 XLT=2.4 XHT=1.6

New Transformer.tr(r:p3udt6686-p3udt6686lv) phases=1 windings=3 %loadloss=0.798816 %Noloadloss=0.37 normhkva=55.0 wdg=1 conn=wye bus=p3udt6686.3 Kv=7.199560000000001 kva=50.0 EmergHKVA=75.0 %r=0.266272 wdg=2 conn=wye bus=p3udt6686lv.1.0 Kv=0.120089 kva=50.0 EmergHKVA=75.0 %r=0.532544 wdg=3 conn=wye bus=p3udt6686lv.0.2 Kv=0.120089 kva=50.0 EmergHKVA=75.0 %r=0.532544 XHL=2.4 XLT=2.4 XHT=1.6

New Transformer.tr(r:p3udt6687-p3udt6687lv) phases=1 windings=3 %loadloss=0.798816 %Noloadloss=0.37 normhkva=55.0 wdg=1 conn=wye bus=p3udt6687.3 Kv=7.199560000000001 kva=50.0 EmergHKVA=75.0 %r=0.266272 wdg=2 conn=wye bus=p3udt6687lv.1.0 Kv=0.120089 kva=50.0 EmergHKVA=75.0 %r=0.532544 wdg=3 conn=wye bus=p3udt6687lv.0.2 Kv=0.120089 kva=50.0 EmergHKVA=75.0 %r=0.532544 XHL=2.4 XLT=2.4 XHT=1.6

New Transformer.tr(r:p3udt6688-p3udt6688lv) phases=1 windings=3 %loadloss=0.798816 %Noloadloss=0.37 normhkva=55.0 wdg=1 conn=wye bus=p3udt6688.1 Kv=7.199560000000001 kva=50.0 EmergHKVA=75.0 %r=0.266272 wdg=2 conn=wye bus=p3udt6688lv.1.0 Kv=0.120089 kva=50.0 EmergHKVA=75.0 %r=0.532544 wdg=3 conn=wye bus=p3udt6688lv.0.2 Kv=0.120089 kva=50.0 EmergHKVA=75.0 %r=0.532544 XHL=2.4 XLT=2.4 XHT=1.6

New Transformer.tr(r:p3udt6758-p3udt6758lv) phases=1 windings=3 %loadloss=0.798816 %Noloadloss=0.472 normhkva=27.5 wdg=1 conn=wye bus=p3udt6758.2 Kv=7.199560000000001 kva=25.0 EmergHKVA=37.5 %r=0.266272 wdg=2 conn=wye bus=p3udt6758lv.1.0 Kv=0.120089 kva=25.0 EmergHKVA=37.5 %r=0.532544 wdg=3 conn=wye bus=p3udt6758lv.0.2 Kv=0.120089 kva=25.0 EmergHKVA=37.5 %r=0.532544 XHL=2.4 XLT=2.4 XHT=1.6

New Transformer.tr(r:p3udt7111-p3udt7111lv) phases=1 windings=3 %loadloss=0.49926 %Noloadloss=0.38 normhkva=82.5 wdg=1 conn=wye bus=p3udt7111.1 Kv=7.199560000000001 kva=75.0 EmergHKVA=112.5 %r=0.16642 wdg=2 conn=wye bus=p3udt7111lv.1.0 Kv=0.120089 kva=75.0 EmergHKVA=112.5 %r=0.33284 wdg=3 conn=wye bus=p3udt7111lv.0.2 Kv=0.120089 kva=75.0 EmergHKVA=112.5 %r=0.33284 XHL=2.4 XLT=2.4 XHT=1.6

New Transformer.tr(r:p3udt7112-p3udt7112lv) phases=1 windings=3 %loadloss=0.798816 %Noloadloss=0.37 normhkva=55.0 wdg=1 conn=wye bus=p3udt7112.3 Kv=7.199560000000001 kva=50.0 EmergHKVA=75.0 %r=0.266272 wdg=2 conn=wye bus=p3udt7112lv.1.0 Kv=0.120089 kva=50.0 EmergHKVA=75.0 %r=0.532544 wdg=3 conn=wye bus=p3udt7112lv.0.2 Kv=0.120089 kva=50.0 EmergHKVA=75.0 %r=0.532544 XHL=2.4 XLT=2.4 XHT=1.6

New Transformer.tr(r:p3udt7686-p3udt7686lv) phases=1 windings=3 %loadloss=0.49926 %Noloadloss=0.38 normhkva=82.5 wdg=1 conn=wye bus=p3udt7686.1 Kv=7.199560000000001 kva=75.0 EmergHKVA=112.5 %r=0.16642 wdg=2 conn=wye bus=p3udt7686lv.1.0 Kv=0.120089 kva=75.0 EmergHKVA=112.5 %r=0.33284 wdg=3 conn=wye bus=p3udt7686lv.0.2 Kv=0.120089 kva=75.0 EmergHKVA=112.5 %r=0.33284 XHL=2.4 XLT=2.4 XHT=1.6

New Transformer.tr(r:p3udt7687-p3udt7687lv) phases=1 windings=3 %loadloss=0.49926 %Noloadloss=0.38 normhkva=82.5 wdg=1 conn=wye bus=p3udt7687.3 Kv=7.199560000000001 kva=75.0 EmergHKVA=112.5 %r=0.16642 wdg=2 conn=wye bus=p3udt7687lv.1.0 Kv=0.120089 kva=75.0 EmergHKVA=112.5 %r=0.33284 wdg=3 conn=wye bus=p3udt7687lv.0.2 Kv=0.120089 kva=75.0 EmergHKVA=112.5 %r=0.33284 XHL=2.4 XLT=2.4 XHT=1.6

New Transformer.tr(r:p3udt7690-p3udt7690lv) phases=1 windings=3 %loadloss=0.798816 %Noloadloss=0.472 normhkva=27.5 wdg=1 conn=wye bus=p3udt7690.1 Kv=7.199560000000001 kva=25.0 EmergHKVA=37.5 %r=0.266272 wdg=2 conn=wye bus=p3udt7690lv.1.0 Kv=0.120089 kva=25.0 EmergHKVA=37.5 %r=0.532544 wdg=3 conn=wye bus=p3udt7690lv.0.2 Kv=0.120089 kva=25.0 EmergHKVA=37.5 %r=0.532544 XHL=2.4 XLT=2.4 XHT=1.6

New Transformer.tr(r:p3udt7691-p3udt7691lv) phases=1 windings=3 %loadloss=0.798816 %Noloadloss=0.472 normhkva=27.5 wdg=1 conn=wye bus=p3udt7691.1 Kv=7.199560000000001 kva=25.0 EmergHKVA=37.5 %r=0.266272 wdg=2 conn=wye bus=p3udt7691lv.1.0 Kv=0.120089 kva=25.0 EmergHKVA=37.5 %r=0.532544 wdg=3 conn=wye bus=p3udt7691lv.0.2 Kv=0.120089 kva=25.0 EmergHKVA=37.5 %r=0.532544 XHL=2.4 XLT=2.4 XHT=1.6

New Transformer.tr(r:p3udt7692-p3udt7692lv) phases=1 windings=3 %loadloss=0.798816 %Noloadloss=0.472 normhkva=27.5 wdg=1 conn=wye bus=p3udt7692.1 Kv=7.199560000000001 kva=25.0 EmergHKVA=37.5 %r=0.266272 wdg=2 conn=wye bus=p3udt7692lv.1.0 Kv=0.120089 kva=25.0 EmergHKVA=37.5 %r=0.532544 wdg=3 conn=wye bus=p3udt7692lv.0.2 Kv=0.120089 kva=25.0 EmergHKVA=37.5 %r=0.532544 XHL=2.4 XLT=2.4 XHT=1.6

New Transformer.tr(r:p3udt7875-p3udt7875lv) phases=1 windings=3 %loadloss=0.49926 %Noloadloss=0.38 normhkva=82.5 wdg=1 conn=wye bus=p3udt7875.1 Kv=7.199560000000001 kva=75.0 EmergHKVA=112.5 %r=0.16642 wdg=2 conn=wye bus=p3udt7875lv.1.0 Kv=0.120089 kva=75.0 EmergHKVA=112.5 %r=0.33284 wdg=3 conn=wye bus=p3udt7875lv.0.2 Kv=0.120089 kva=75.0 EmergHKVA=112.5 %r=0.33284 XHL=2.4 XLT=2.4 XHT=1.6

New Transformer.tr(r:p3udt7876-p3udt7876lv) phases=1 windings=3 %loadloss=0.49926 %Noloadloss=0.38 normhkva=82.5 wdg=1 conn=wye bus=p3udt7876.1 Kv=7.199560000000001 kva=75.0 EmergHKVA=112.5 %r=0.16642 wdg=2 conn=wye bus=p3udt7876lv.1.0 Kv=0.120089 kva=75.0 EmergHKVA=112.5 %r=0.33284 wdg=3 conn=wye bus=p3udt7876lv.0.2 Kv=0.120089 kva=75.0 EmergHKVA=112.5 %r=0.33284 XHL=2.4 XLT=2.4 XHT=1.6

New Transformer.tr(r:p3udt7879-p3udt7879lv) phases=1 windings=3 %loadloss=0.49926 %Noloadloss=0.38 normhkva=82.5 wdg=1 conn=wye bus=p3udt7879.1 Kv=7.199560000000001 kva=75.0 EmergHKVA=112.5 %r=0.16642 wdg=2 conn=wye bus=p3udt7879lv.1.0 Kv=0.120089 kva=75.0 EmergHKVA=112.5 %r=0.33284 wdg=3 conn=wye bus=p3udt7879lv.0.2 Kv=0.120089 kva=75.0 EmergHKVA=112.5 %r=0.33284 XHL=2.4 XLT=2.4 XHT=1.6

New Transformer.tr(r:p3udt8247-p3udt8247lv) phases=1 windings=3 %loadloss=0.49926 %Noloadloss=0.38 normhkva=82.5 wdg=1 conn=wye bus=p3udt8247.2 Kv=7.199560000000001 kva=75.0 EmergHKVA=112.5 %r=0.16642 wdg=2 conn=wye bus=p3udt8247lv.1.0 Kv=0.120089 kva=75.0 EmergHKVA=112.5 %r=0.33284 wdg=3 conn=wye bus=p3udt8247lv.0.2 Kv=0.120089 kva=75.0 EmergHKVA=112.5 %r=0.33284 XHL=2.4 XLT=2.4 XHT=1.6

New Transformer.tr(r:p3udt8248-p3udt8248lv) phases=1 windings=3 %loadloss=0.49926 %Noloadloss=0.38 normhkva=82.5 wdg=1 conn=wye bus=p3udt8248.2 Kv=7.199560000000001 kva=75.0 EmergHKVA=112.5 %r=0.16642 wdg=2 conn=wye bus=p3udt8248lv.1.0 Kv=0.120089 kva=75.0 EmergHKVA=112.5 %r=0.33284 wdg=3 conn=wye bus=p3udt8248lv.0.2 Kv=0.120089 kva=75.0 EmergHKVA=112.5 %r=0.33284 XHL=2.4 XLT=2.4 XHT=1.6

New Transformer.tr(r:p3udt8450-p3udt8450lv) phases=1 windings=3 %loadloss=0.49926 %Noloadloss=0.38 normhkva=82.5 wdg=1 conn=wye bus=p3udt8450.3 Kv=7.199560000000001 kva=75.0 EmergHKVA=112.5 %r=0.16642 wdg=2 conn=wye bus=p3udt8450lv.1.0 Kv=0.120089 kva=75.0 EmergHKVA=112.5 %r=0.33284 wdg=3 conn=wye bus=p3udt8450lv.0.2 Kv=0.120089 kva=75.0 EmergHKVA=112.5 %r=0.33284 XHL=2.4 XLT=2.4 XHT=1.6

New Transformer.tr(r:p3udt8451-p3udt8451lv) phases=1 windings=3 %loadloss=0.798816 %Noloadloss=0.472 normhkva=27.5 wdg=1 conn=wye bus=p3udt8451.2 Kv=7.199560000000001 kva=25.0 EmergHKVA=37.5 %r=0.266272 wdg=2 conn=wye bus=p3udt8451lv.1.0 Kv=0.120089 kva=25.0 EmergHKVA=37.5 %r=0.532544 wdg=3 conn=wye bus=p3udt8451lv.0.2 Kv=0.120089 kva=25.0 EmergHKVA=37.5 %r=0.532544 XHL=2.4 XLT=2.4 XHT=1.6

New Transformer.tr(r:p3udt8508-p3udt8508lv) phases=1 windings=3 %loadloss=0.798816 %Noloadloss=0.37 normhkva=55.0 wdg=1 conn=wye bus=p3udt8508.2 Kv=7.199560000000001 kva=50.0 EmergHKVA=75.0 %r=0.266272 wdg=2 conn=wye bus=p3udt8508lv.1.0 Kv=0.120089 kva=50.0 EmergHKVA=75.0 %r=0.532544 wdg=3 conn=wye bus=p3udt8508lv.0.2 Kv=0.120089 kva=50.0 EmergHKVA=75.0 %r=0.532544 XHL=2.4 XLT=2.4 XHT=1.6

New Transformer.tr(r:p3udt8822-p3udt8822lv) phases=1 windings=3 %loadloss=0.798816 %Noloadloss=0.37 normhkva=55.0 wdg=1 conn=wye bus=p3udt8822.3 Kv=7.199560000000001 kva=50.0 EmergHKVA=75.0 %r=0.266272 wdg=2 conn=wye bus=p3udt8822lv.1.0 Kv=0.120089 kva=50.0 EmergHKVA=75.0 %r=0.532544 wdg=3 conn=wye bus=p3udt8822lv.0.2 Kv=0.120089 kva=50.0 EmergHKVA=75.0 %r=0.532544 XHL=2.4 XLT=2.4 XHT=1.6
