Clear

New Circuit.substation_p5uhs19_69 bus1=p5uhs19_69 pu=1.0 basekV=69.0 R1=1e-05 X1=1e-05 R0=1e-05 X0=1e-05

Redirect Transformers.dss
Redirect p5uhs19_1247--p5udt22111/Transformers.dss
Redirect p5uhs19_1247--p5udt17094/Transformers.dss
Redirect p5uhs19_1247--p5udt8885/Transformers.dss
Redirect p5uhs19_1247--p5udt30268/Transformers.dss
Redirect Regulators.dss
Redirect p5uhs19_1247--p5udt22111/Loads.dss
Redirect p5uhs19_1247--p5udt17094/Loads.dss
Redirect p5uhs19_1247--p5udt8885/Loads.dss
Redirect p5uhs19_1247--p5udt30268/Loads.dss
Redirect LineCodes.dss
Redirect p5uhs19_1247--p5udt22111/LineCodes.dss
Redirect p5uhs19_1247--p5udt17094/LineCodes.dss
Redirect p5uhs19_1247--p5udt8885/LineCodes.dss
Redirect p5uhs19_1247--p5udt30268/LineCodes.dss
Redirect Lines.dss
Redirect p5uhs19_1247--p5udt22111/Lines.dss
Redirect p5uhs19_1247--p5udt17094/Lines.dss
Redirect p5uhs19_1247--p5udt8885/Lines.dss
Redirect p5uhs19_1247--p5udt30268/Lines.dss
Redirect p5uhs19_1247--p5udt30268/Capacitors.dss
Redirect p5uhs19_1247--p5udt17094/Capacitors.dss
Redirect p5uhs19_1247--p5udt8885/Capacitors.dss
Redirect p5uhs19_1247--p5udt22111/Capacitors.dss

Set Voltagebases=[0.2080002494301389, 0.48, 7.199560000000001, 12.47, 69.0]

Calcvoltagebases

Buscoords Buscoords.dss

Solve