New Load.load_p4ulv15 conn=wye bus1=p4ulv15.1.2 kV=0.2080002494301389 Vminpu=0.8 Vmaxpu=1.2 model=1 kW=7.53008 kvar=1.529047959266903 Phases=2

New Load.load_p4ulv16 conn=wye bus1=p4ulv16.1.2 kV=0.2080002494301389 Vminpu=0.8 Vmaxpu=1.2 model=1 kW=0.18000200000000002 kvar=0.05999010265792538 Phases=2

New Load.load_p4ulv17 conn=wye bus1=p4ulv17.1.2 kV=0.2080002494301389 Vminpu=0.8 Vmaxpu=1.2 model=1 kW=1.13001 kvar=0.3698099070348726 Phases=2

New Load.load_p4ulv460 conn=wye bus1=p4ulv460.1.2 kV=0.2080002494301389 Vminpu=0.8 Vmaxpu=1.2 model=1 kW=10.0001 kvar=2.0306069122061063 Phases=2

New Load.load_p4ulv869 conn=wye bus1=p4ulv869.1.2 kV=0.2080002494301389 Vminpu=0.8 Vmaxpu=1.2 model=1 kW=4.72005 kvar=0.9609139495179535 Phases=2

New Load.load_p4ulv871 conn=wye bus1=p4ulv871.1.2 kV=0.2080002494301389 Vminpu=0.8 Vmaxpu=1.2 model=1 kW=5.99006 kvar=1.9709623007402883 Phases=2

New Load.load_p4ulv1290 conn=wye bus1=p4ulv1290.1.2 kV=0.2080002494301389 Vminpu=0.8 Vmaxpu=1.2 model=1 kW=8.14008 kvar=1.6486496852679053 Phases=2

New Load.load_p4ulv1292 conn=wye bus1=p4ulv1292.1.2 kV=0.2080002494301389 Vminpu=0.8 Vmaxpu=1.2 model=1 kW=6.100060000000001 kvar=1.2386700133870643 Phases=2

New Load.load_p4ulv1735 conn=wye bus1=p4ulv1735.1.2 kV=0.2080002494301389 Vminpu=0.8 Vmaxpu=1.2 model=1 kW=5.29005 kvar=1.0686419089616372 Phases=2

New Load.load_p4ulv1736 conn=wye bus1=p4ulv1736.1.2 kV=0.2080002494301389 Vminpu=0.8 Vmaxpu=1.2 model=1 kW=1.38001 kvar=0.4599223429126544 Phases=2

New Load.load_p4ulv1738 conn=wye bus1=p4ulv1738.1.2 kV=0.2080002494301389 Vminpu=0.8 Vmaxpu=1.2 model=1 kW=1.64002 kvar=0.5402115565350929 Phases=2

New Load.load_p4ulv1739 conn=wye bus1=p4ulv1739.1.2 kV=0.2080002494301389 Vminpu=0.8 Vmaxpu=1.2 model=1 kW=5.00005 kvar=1.010059068799659 Phases=2

New Load.load_p4ulv1740 conn=wye bus1=p4ulv1740.1.2 kV=0.2080002494301389 Vminpu=0.8 Vmaxpu=1.2 model=1 kW=7.7100800000000005 kvar=1.5696281657820117 Phases=2

New Load.load_p4ulv2515 conn=wye bus1=p4ulv2515.1.2 kV=0.2080002494301389 Vminpu=0.8 Vmaxpu=1.2 model=1 kW=5.35005 kvar=1.0891701731164982 Phases=2

New Load.load_p4ulv2518 conn=wye bus1=p4ulv2518.1.2 kV=0.2080002494301389 Vminpu=0.8 Vmaxpu=1.2 model=1 kW=5.54006 kvar=1.1191463774750727 Phases=2

New Load.load_p4ulv2966 conn=wye bus1=p4ulv2966.1.2 kV=0.2080002494301389 Vminpu=0.8 Vmaxpu=1.2 model=1 kW=1.88002 kvar=0.6199318075413053 Phases=2

New Load.load_p4ulv2967 conn=wye bus1=p4ulv2967.1.2 kV=0.2080002494301389 Vminpu=0.8 Vmaxpu=1.2 model=1 kW=5.45005 kvar=1.109528303846426 Phases=2

New Load.load_p4ulv3374 conn=wye bus1=p4ulv3374.1.2 kV=0.2080002494301389 Vminpu=0.8 Vmaxpu=1.2 model=1 kW=4.80005 kvar=0.9797035253585847 Phases=2

New Load.load_p4ulv3375 conn=wye bus1=p4ulv3375.1.2 kV=0.2080002494301389 Vminpu=0.8 Vmaxpu=1.2 model=1 kW=6.64007 kvar=1.3483237207160328 Phases=2

New Load.load_p4ulv3376 conn=wye bus1=p4ulv3376.1.2 kV=0.2080002494301389 Vminpu=0.8 Vmaxpu=1.2 model=1 kW=3.44003 kvar=0.7003258045487328 Phases=2

New Load.load_p4ulv3819 conn=wye bus1=p4ulv3819.1.2 kV=0.2080002494301389 Vminpu=0.8 Vmaxpu=1.2 model=1 kW=2.94003 kvar=0.6000682817178988 Phases=2

New Load.load_p4ulv3820 conn=wye bus1=p4ulv3820.1.2 kV=0.2080002494301389 Vminpu=0.8 Vmaxpu=1.2 model=1 kW=6.54007 kvar=1.3314360004287842 Phases=2

New Load.load_p4ulv3821 conn=wye bus1=p4ulv3821.1.2 kV=0.2080002494301389 Vminpu=0.8 Vmaxpu=1.2 model=1 kW=1.38001 kvar=0.45015019350021623 Phases=2

New Load.load_p4ulv3822 conn=wye bus1=p4ulv3822.1.2 kV=0.2080002494301389 Vminpu=0.8 Vmaxpu=1.2 model=1 kW=5.67006 kvar=1.1513547893144422 Phases=2

New Load.load_p4ulv3824 conn=wye bus1=p4ulv3824.1.2 kV=0.2080002494301389 Vminpu=0.8 Vmaxpu=1.2 model=1 kW=6.88007 kvar=1.4006536449105385 Phases=2

New Load.load_p4ulv3825 conn=wye bus1=p4ulv3825.1.2 kV=0.2080002494301389 Vminpu=0.8 Vmaxpu=1.2 model=1 kW=9.22009 kvar=1.8722191263249766 Phases=2

New Load.load_p4ulv4235 conn=wye bus1=p4ulv4235.1.2 kV=0.2080002494301389 Vminpu=0.8 Vmaxpu=1.2 model=1 kW=1.9800200000000001 kvar=0.39998343164662364 Phases=2

New Load.load_p4ulv4238 conn=wye bus1=p4ulv4238.1.2 kV=0.2080002494301389 Vminpu=0.8 Vmaxpu=1.2 model=1 kW=9.9401 kvar=2.018423392568066 Phases=2

New Load.load_p4ulv4239 conn=wye bus1=p4ulv4239.1.2 kV=0.2080002494301389 Vminpu=0.8 Vmaxpu=1.2 model=1 kW=4.95005 kvar=0.999958579116559 Phases=2

New Load.load_p4ulv4240 conn=wye bus1=p4ulv4240.1.2 kV=0.2080002494301389 Vminpu=0.8 Vmaxpu=1.2 model=1 kW=6.75007 kvar=1.3706601733857733 Phases=2

New Load.load_p4ulv4242 conn=wye bus1=p4ulv4242.1.2 kV=0.2080002494301389 Vminpu=0.8 Vmaxpu=1.2 model=1 kW=0.560006 kvar=0.1800595900806027 Phases=2

New Load.load_p4ulv4243 conn=wye bus1=p4ulv4243.1.2 kV=0.2080002494301389 Vminpu=0.8 Vmaxpu=1.2 model=1 kW=5.600060000000001 kvar=1.1400675357543906 Phases=2

New Load.load_p4ulv4244 conn=wye bus1=p4ulv4244.1.2 kV=0.2080002494301389 Vminpu=0.8 Vmaxpu=1.2 model=1 kW=4.98005 kvar=1.011242282890373 Phases=2

New Load.load_p4ulv4316 conn=wye bus1=p4ulv4316.1.2 kV=0.2080002494301389 Vminpu=0.8 Vmaxpu=1.2 model=1 kW=2.17002 kvar=0.4395046228077686 Phases=2

New Load.load_p4ulv4621 conn=wye bus1=p4ulv4621.1.2 kV=0.2080002494301389 Vminpu=0.8 Vmaxpu=1.2 model=1 kW=6.49006 kvar=1.3212548992507473 Phases=2

New Load.load_p4ulv4622 conn=wye bus1=p4ulv4622.1.2 kV=0.2080002494301389 Vminpu=0.8 Vmaxpu=1.2 model=1 kW=6.00006 kvar=1.2215000586741016 Phases=2

New Load.load_p4ulv5030 conn=wye bus1=p4ulv5030.1.2 kV=0.2080002494301389 Vminpu=0.8 Vmaxpu=1.2 model=1 kW=5.35005 kvar=1.0891701731164982 Phases=2

New Load.load_p4ulv5031 conn=wye bus1=p4ulv5031.1.2 kV=0.2080002494301389 Vminpu=0.8 Vmaxpu=1.2 model=1 kW=5.86006 kvar=1.1899359348349032 Phases=2

New Load.load_p4ulv5032 conn=wye bus1=p4ulv5032.1.2 kV=0.2080002494301389 Vminpu=0.8 Vmaxpu=1.2 model=1 kW=6.26006 kvar=1.2711593990885048 Phases=2

New Load.load_p4ulv5033 conn=wye bus1=p4ulv5033.1.2 kV=0.2080002494301389 Vminpu=0.8 Vmaxpu=1.2 model=1 kW=9.21009 kvar=1.8701885397186364 Phases=2

New Load.load_p4ulv5034 conn=wye bus1=p4ulv5034.1.2 kV=0.2080002494301389 Vminpu=0.8 Vmaxpu=1.2 model=1 kW=2.20002 kvar=0.7199840635701102 Phases=2

New Load.load_p4ulv5115 conn=wye bus1=p4ulv5115.1.2 kV=0.2080002494301389 Vminpu=0.8 Vmaxpu=1.2 model=1 kW=2.56003 kvar=0.8396229018056969 Phases=2

New Load.load_p4ulv5471 conn=wye bus1=p4ulv5471.1.2 kV=0.2080002494301389 Vminpu=0.8 Vmaxpu=1.2 model=1 kW=5.31005 kvar=1.0810269208245273 Phases=2

New Load.load_p4ulv5472 conn=wye bus1=p4ulv5472.1.2 kV=0.2080002494301389 Vminpu=0.8 Vmaxpu=1.2 model=1 kW=4.86005 kvar=0.9894153325398525 Phases=2

New Load.load_p4ulv5473 conn=wye bus1=p4ulv5473.1.2 kV=0.2080002494301389 Vminpu=0.8 Vmaxpu=1.2 model=1 kW=5.48005 kvar=1.109900972441596 Phases=2

New Load.load_p4ulv5474 conn=wye bus1=p4ulv5474.1.2 kV=0.2080002494301389 Vminpu=0.8 Vmaxpu=1.2 model=1 kW=0.440004 kvar=0.1500168704752404 Phases=2

New Load.load_p4ulv5897 conn=wye bus1=p4ulv5897.1.2 kV=0.2080002494301389 Vminpu=0.8 Vmaxpu=1.2 model=1 kW=8.10008 kvar=1.640548292233597 Phases=2

New Load.load_p4ulv5898 conn=wye bus1=p4ulv5898.1.2 kV=0.2080002494301389 Vminpu=0.8 Vmaxpu=1.2 model=1 kW=7.44007 kvar=1.5107706492232365 Phases=2

New Load.load_p4ulv5900 conn=wye bus1=p4ulv5900.1.2 kV=0.2080002494301389 Vminpu=0.8 Vmaxpu=1.2 model=1 kW=7.030070000000001 kvar=1.43119084100543 Phases=2

New Load.load_p4ulv5901 conn=wye bus1=p4ulv5901.1.2 kV=0.2080002494301389 Vminpu=0.8 Vmaxpu=1.2 model=1 kW=6.11006 kvar=1.2407005999934042 Phases=2

New Load.load_p4ulv6310 conn=wye bus1=p4ulv6310.1.2 kV=0.2080002494301389 Vminpu=0.8 Vmaxpu=1.2 model=1 kW=7.87008 kvar=1.5980879038824647 Phases=2

New Load.load_p4ulv6312 conn=wye bus1=p4ulv6312.1.2 kV=0.2080002494301389 Vminpu=0.8 Vmaxpu=1.2 model=1 kW=2.64003 kvar=0.8696081240468659 Phases=2

New Load.load_p4ulv6314 conn=wye bus1=p4ulv6314.1.2 kV=0.2080002494301389 Vminpu=0.8 Vmaxpu=1.2 model=1 kW=1.83002 kvar=0.6001987096879574 Phases=2

New Load.load_p4ulv6316 conn=wye bus1=p4ulv6316.1.2 kV=0.2080002494301389 Vminpu=0.8 Vmaxpu=1.2 model=1 kW=5.23005 kvar=1.059267265977166 Phases=2

New Load.load_p4ulv6719 conn=wye bus1=p4ulv6719.1.2 kV=0.2080002494301389 Vminpu=0.8 Vmaxpu=1.2 model=1 kW=5.31005 kvar=1.0810269208245273 Phases=2

New Load.load_p4ulv7123 conn=wye bus1=p4ulv7123.1.2 kV=0.2080002494301389 Vminpu=0.8 Vmaxpu=1.2 model=1 kW=4.77005 kvar=0.9710930148829175 Phases=2

New Load.load_p4ulv7124 conn=wye bus1=p4ulv7124.1.2 kV=0.2080002494301389 Vminpu=0.8 Vmaxpu=1.2 model=1 kW=5.21005 kvar=1.0606687900945995 Phases=2

New Load.load_p4ulv7562 conn=wye bus1=p4ulv7562.1.2 kV=0.2080002494301389 Vminpu=0.8 Vmaxpu=1.2 model=1 kW=7.57008 kvar=1.5411267827601127 Phases=2

New Load.load_p4ulv7564 conn=wye bus1=p4ulv7564.1.2 kV=0.2080002494301389 Vminpu=0.8 Vmaxpu=1.2 model=1 kW=5.61006 kvar=1.1391712696764018 Phases=2

New Load.load_p4ulv7565 conn=wye bus1=p4ulv7565.1.2 kV=0.2080002494301389 Vminpu=0.8 Vmaxpu=1.2 model=1 kW=9.47009 kvar=1.9180230290069313 Phases=2

New Load.load_p4ulv7991 conn=wye bus1=p4ulv7991.1.2 kV=0.2080002494301389 Vminpu=0.8 Vmaxpu=1.2 model=1 kW=5.00005 kvar=1.0205240803677447 Phases=2

New Load.load_p4ulv7992 conn=wye bus1=p4ulv7992.1.2 kV=0.2080002494301389 Vminpu=0.8 Vmaxpu=1.2 model=1 kW=9.36009 kvar=1.9006473388137373 Phases=2

New Load.load_p4ulv7994 conn=wye bus1=p4ulv7994.1.2 kV=0.2080002494301389 Vminpu=0.8 Vmaxpu=1.2 model=1 kW=8.00008 kvar=1.6286667448988021 Phases=2

New Load.load_p4ulv8076 conn=wye bus1=p4ulv8076.1.2 kV=0.2080002494301389 Vminpu=0.8 Vmaxpu=1.2 model=1 kW=7.15007 kvar=1.448138182320505 Phases=2

New Load.load_p4ulv8439 conn=wye bus1=p4ulv8439.1.2 kV=0.2080002494301389 Vminpu=0.8 Vmaxpu=1.2 model=1 kW=7.29007 kvar=1.4803118501281356 Phases=2

New Load.load_p4ulv8440 conn=wye bus1=p4ulv8440.1.2 kV=0.2080002494301389 Vminpu=0.8 Vmaxpu=1.2 model=1 kW=7.29007 kvar=1.4803118501281356 Phases=2

New Load.load_p4ulv8441 conn=wye bus1=p4ulv8441.1.2 kV=0.2080002494301389 Vminpu=0.8 Vmaxpu=1.2 model=1 kW=8.26008 kvar=1.681597884796614 Phases=2

New Load.load_p4ulv8442 conn=wye bus1=p4ulv8442.1.2 kV=0.2080002494301389 Vminpu=0.8 Vmaxpu=1.2 model=1 kW=6.66007 kvar=1.348896117650222 Phases=2

New Load.load_p4ulv8443 conn=wye bus1=p4ulv8443.1.2 kV=0.2080002494301389 Vminpu=0.8 Vmaxpu=1.2 model=1 kW=4.77005 kvar=0.9710930148829175 Phases=2

New Load.load_p4ulv8444 conn=wye bus1=p4ulv8444.1.2 kV=0.2080002494301389 Vminpu=0.8 Vmaxpu=1.2 model=1 kW=2.85003 kvar=0.5802128332421591 Phases=2

New Load.load_p4ulv8840 conn=wye bus1=p4ulv8840.1.2 kV=0.2080002494301389 Vminpu=0.8 Vmaxpu=1.2 model=1 kW=5.01005 kvar=1.019952528634744 Phases=2

New Load.load_p4ulv8841 conn=wye bus1=p4ulv8841.1.2 kV=0.2080002494301389 Vminpu=0.8 Vmaxpu=1.2 model=1 kW=5.170050000000001 kvar=1.0498234284108339 Phases=2

New Load.load_p4ulv8842 conn=wye bus1=p4ulv8842.1.2 kV=0.2080002494301389 Vminpu=0.8 Vmaxpu=1.2 model=1 kW=0.570006 kvar=0.18996854732521534 Phases=2

New Load.load_p4ulv8843 conn=wye bus1=p4ulv8843.1.2 kV=0.2080002494301389 Vminpu=0.8 Vmaxpu=1.2 model=1 kW=2.3700200000000002 kvar=0.7798285947053116 Phases=2

New Load.load_p4ulv9254 conn=wye bus1=p4ulv9254.1.2 kV=0.2080002494301389 Vminpu=0.8 Vmaxpu=1.2 model=1 kW=3.04003 kvar=0.6204785592224786 Phases=2

New Load.load_p4ulv9255 conn=wye bus1=p4ulv9255.1.2 kV=0.2080002494301389 Vminpu=0.8 Vmaxpu=1.2 model=1 kW=11.840100000000001 kvar=2.3980325916379854 Phases=2

New Load.load_p4ulv9695 conn=wye bus1=p4ulv9695.1.2 kV=0.2080002494301389 Vminpu=0.8 Vmaxpu=1.2 model=1 kW=14.1301 kvar=2.869239180624544 Phases=2

New Load.load_p4ulv10110 conn=wye bus1=p4ulv10110.1.2 kV=0.2080002494301389 Vminpu=0.8 Vmaxpu=1.2 model=1 kW=8.790090000000001 kvar=1.7802993474236821 Phases=2

New Load.load_p4ulv10113 conn=wye bus1=p4ulv10113.1.2 kV=0.2080002494301389 Vminpu=0.8 Vmaxpu=1.2 model=1 kW=5.23005 kvar=1.059267265977166 Phases=2

New Load.load_p4ulv10114 conn=wye bus1=p4ulv10114.1.2 kV=0.2080002494301389 Vminpu=0.8 Vmaxpu=1.2 model=1 kW=7.97008 kvar=1.6183937699458648 Phases=2

New Load.load_p4ulv10115 conn=wye bus1=p4ulv10115.1.2 kV=0.2080002494301389 Vminpu=0.8 Vmaxpu=1.2 model=1 kW=4.85005 kvar=0.9899086641108747 Phases=2

New Load.load_p4ulv10116 conn=wye bus1=p4ulv10116.1.2 kV=0.2080002494301389 Vminpu=0.8 Vmaxpu=1.2 model=1 kW=5.25005 kvar=1.0688120423865706 Phases=2

New Load.load_p4ulv10539 conn=wye bus1=p4ulv10539.1.2 kV=0.2080002494301389 Vminpu=0.8 Vmaxpu=1.2 model=1 kW=6.350060000000001 kvar=1.2894346785455655 Phases=2

New Load.load_p4ulv10541 conn=wye bus1=p4ulv10541.1.2 kV=0.2080002494301389 Vminpu=0.8 Vmaxpu=1.2 model=1 kW=7.76008 kvar=1.5798072311469755 Phases=2

New Load.load_p4ulv10946 conn=wye bus1=p4ulv10946.1.2 kV=0.2080002494301389 Vminpu=0.8 Vmaxpu=1.2 model=1 kW=4.920050000000001 kvar=0.9990587632523329 Phases=2

New Load.load_p4ulv10947 conn=wye bus1=p4ulv10947.1.2 kV=0.2080002494301389 Vminpu=0.8 Vmaxpu=1.2 model=1 kW=13.2301 kvar=2.693401053700168 Phases=2

New Load.load_p4ulv10949 conn=wye bus1=p4ulv10949.1.2 kV=0.2080002494301389 Vminpu=0.8 Vmaxpu=1.2 model=1 kW=4.920050000000001 kvar=0.9990587632523329 Phases=2

New Load.load_p4ulv10950 conn=wye bus1=p4ulv10950.1.2 kV=0.2080002494301389 Vminpu=0.8 Vmaxpu=1.2 model=1 kW=7.57008 kvar=1.5411267827601127 Phases=2

New Load.load_p4ulv10951 conn=wye bus1=p4ulv10951.1.2 kV=0.2080002494301389 Vminpu=0.8 Vmaxpu=1.2 model=1 kW=7.14007 kvar=1.449853051033035 Phases=2

New Load.load_p4ulv10952 conn=wye bus1=p4ulv10952.1.2 kV=0.2080002494301389 Vminpu=0.8 Vmaxpu=1.2 model=1 kW=6.48006 kvar=1.3192190861777544 Phases=2

New Load.load_p4ulv11395 conn=wye bus1=p4ulv11395.1.2 kV=0.2080002494301389 Vminpu=0.8 Vmaxpu=1.2 model=1 kW=2.14002 kvar=0.4300500713784323 Phases=2

New Load.load_p4ulv11396 conn=wye bus1=p4ulv11396.1.2 kV=0.2080002494301389 Vminpu=0.8 Vmaxpu=1.2 model=1 kW=5.87006 kvar=1.1888915798743651 Phases=2

New Load.load_p4ulv11397 conn=wye bus1=p4ulv11397.1.2 kV=0.2080002494301389 Vminpu=0.8 Vmaxpu=1.2 model=1 kW=12.7201 kvar=2.582926469130598 Phases=2

New Load.load_p4ulv11398 conn=wye bus1=p4ulv11398.1.2 kV=0.2080002494301389 Vminpu=0.8 Vmaxpu=1.2 model=1 kW=1.75002 kvar=0.3498246235335853 Phases=2

New Load.load_p4ulv11399 conn=wye bus1=p4ulv11399.1.2 kV=0.2080002494301389 Vminpu=0.8 Vmaxpu=1.2 model=1 kW=7.94008 kvar=1.608142720096362 Phases=2

New Load.load_p4ulv11808 conn=wye bus1=p4ulv11808.1.2 kV=0.2080002494301389 Vminpu=0.8 Vmaxpu=1.2 model=1 kW=1.17001 kvar=0.3899346674525799 Phases=2

New Load.load_p4ulv11809 conn=wye bus1=p4ulv11809.1.2 kV=0.2080002494301389 Vminpu=0.8 Vmaxpu=1.2 model=1 kW=7.55008 kvar=1.5291541380118512 Phases=2

New Load.load_p4ulv11810 conn=wye bus1=p4ulv11810.1.2 kV=0.2080002494301389 Vminpu=0.8 Vmaxpu=1.2 model=1 kW=1.88002 kvar=0.37978245228042407 Phases=2

New Load.load_p4ulv12267 conn=wye bus1=p4ulv12267.1.2 kV=0.2080002494301389 Vminpu=0.8 Vmaxpu=1.2 model=1 kW=5.14005 kvar=1.0410391316499712 Phases=2

New Load.load_p4ulv12268 conn=wye bus1=p4ulv12268.1.2 kV=0.2080002494301389 Vminpu=0.8 Vmaxpu=1.2 model=1 kW=7.08007 kvar=1.4413699063703937 Phases=2

New Load.load_p4ulv12269 conn=wye bus1=p4ulv12269.1.2 kV=0.2080002494301389 Vminpu=0.8 Vmaxpu=1.2 model=1 kW=6.46006 kvar=1.30838712713042 Phases=2

New Load.load_p4ulv12270 conn=wye bus1=p4ulv12270.1.2 kV=0.2080002494301389 Vminpu=0.8 Vmaxpu=1.2 model=1 kW=10.5701 kvar=2.1518747762840906 Phases=2

New Load.load_p4ulv12705 conn=wye bus1=p4ulv12705.1.2 kV=0.2080002494301389 Vminpu=0.8 Vmaxpu=1.2 model=1 kW=7.6700800000000005 kvar=1.5614849134900406 Phases=2

New Load.load_p4ulv12708 conn=wye bus1=p4ulv12708.1.2 kV=0.2080002494301389 Vminpu=0.8 Vmaxpu=1.2 model=1 kW=15.7202 kvar=3.1921227568986743 Phases=2

New Load.load_p4ulv12710 conn=wye bus1=p4ulv12710.1.2 kV=0.2080002494301389 Vminpu=0.8 Vmaxpu=1.2 model=1 kW=8.46008 kvar=1.7178925136565273 Phases=2

New Load.load_p4ulv12796 conn=wye bus1=p4ulv12796.1.2 kV=0.2080002494301389 Vminpu=0.8 Vmaxpu=1.2 model=1 kW=7.98008 kvar=1.6204243565522047 Phases=2

New Load.load_p4ulv13142 conn=wye bus1=p4ulv13142.1.2 kV=0.2080002494301389 Vminpu=0.8 Vmaxpu=1.2 model=1 kW=5.74006 kvar=1.1685689187762893 Phases=2

New Load.load_p4ulv13143 conn=wye bus1=p4ulv13143.1.2 kV=0.2080002494301389 Vminpu=0.8 Vmaxpu=1.2 model=1 kW=7.30007 kvar=1.4785184061991627 Phases=2

New Load.load_p4ulv13146 conn=wye bus1=p4ulv13146.1.2 kV=0.2080002494301389 Vminpu=0.8 Vmaxpu=1.2 model=1 kW=6.20006 kvar=1.2589758794504644 Phases=2

New Load.load_p4ulv13147 conn=wye bus1=p4ulv13147.1.2 kV=0.2080002494301389 Vminpu=0.8 Vmaxpu=1.2 model=1 kW=6.780070000000001 kvar=1.3802955141806108 Phases=2

New Load.load_p4ulv13148 conn=wye bus1=p4ulv13148.1.2 kV=0.2080002494301389 Vminpu=0.8 Vmaxpu=1.2 model=1 kW=6.41006 kvar=1.3016181981836055 Phases=2

New Load.load_p4ulv13576 conn=wye bus1=p4ulv13576.1.2 kV=0.2080002494301389 Vminpu=0.8 Vmaxpu=1.2 model=1 kW=12.9901 kvar=2.637752307501779 Phases=2

New Load.load_p4ulv13577 conn=wye bus1=p4ulv13577.1.2 kV=0.2080002494301389 Vminpu=0.8 Vmaxpu=1.2 model=1 kW=8.93009 kvar=1.8086542230437628 Phases=2

New Load.load_p4ulv13578 conn=wye bus1=p4ulv13578.1.2 kV=0.2080002494301389 Vminpu=0.8 Vmaxpu=1.2 model=1 kW=6.72007 kvar=1.3610482072016854 Phases=2

New Load.load_p4ulv13579 conn=wye bus1=p4ulv13579.1.2 kV=0.2080002494301389 Vminpu=0.8 Vmaxpu=1.2 model=1 kW=5.05005 kvar=1.0307292191200343 Phases=2

New Load.load_p4ulv13580 conn=wye bus1=p4ulv13580.1.2 kV=0.2080002494301389 Vminpu=0.8 Vmaxpu=1.2 model=1 kW=6.390060000000001 kvar=1.3008967685208197 Phases=2

New Load.load_p4ulv13581 conn=wye bus1=p4ulv13581.1.2 kV=0.2080002494301389 Vminpu=0.8 Vmaxpu=1.2 model=1 kW=6.37006 kvar=1.2901589928032249 Phases=2

New Load.load_p4ulv14032 conn=wye bus1=p4ulv14032.1.2 kV=0.2080002494301389 Vminpu=0.8 Vmaxpu=1.2 model=1 kW=5.35005 kvar=1.0891701731164982 Phases=2

New Load.load_p4ulv14038 conn=wye bus1=p4ulv14038.1.2 kV=0.2080002494301389 Vminpu=0.8 Vmaxpu=1.2 model=1 kW=5.45005 kvar=1.109528303846426 Phases=2

New Load.load_p4ulv14457 conn=wye bus1=p4ulv14457.1.2 kV=0.2080002494301389 Vminpu=0.8 Vmaxpu=1.2 model=1 kW=5.48005 kvar=1.109900972441596 Phases=2

New Load.load_p4ulv14460 conn=wye bus1=p4ulv14460.1.2 kV=0.2080002494301389 Vminpu=0.8 Vmaxpu=1.2 model=1 kW=3.83004 kvar=1.2602318591679107 Phases=2

New Load.load_p4ulv14461 conn=wye bus1=p4ulv14461.1.2 kV=0.2080002494301389 Vminpu=0.8 Vmaxpu=1.2 model=1 kW=1.79002 kvar=0.5902545367257196 Phases=2

New Load.load_p4ulv14869 conn=wye bus1=p4ulv14869.1.2 kV=0.2080002494301389 Vminpu=0.8 Vmaxpu=1.2 model=1 kW=4.77005 kvar=0.9710930148829175 Phases=2

New Load.load_p4ulv14870 conn=wye bus1=p4ulv14870.1.2 kV=0.2080002494301389 Vminpu=0.8 Vmaxpu=1.2 model=1 kW=2.03002 kvar=0.4100839213297234 Phases=2

New Load.load_p4ulv14872 conn=wye bus1=p4ulv14872.1.2 kV=0.2080002494301389 Vminpu=0.8 Vmaxpu=1.2 model=1 kW=6.92007 kvar=1.4015551723732291 Phases=2

New Load.load_p4ulv14873 conn=wye bus1=p4ulv14873.1.2 kV=0.2080002494301389 Vminpu=0.8 Vmaxpu=1.2 model=1 kW=9.03009 kvar=1.8289077056295349 Phases=2

New Load.load_p4ulv15319 conn=wye bus1=p4ulv15319.1.2 kV=0.2080002494301389 Vminpu=0.8 Vmaxpu=1.2 model=1 kW=10.7001 kvar=2.1727479746499094 Phases=2

New Load.load_p4ulv15323 conn=wye bus1=p4ulv15323.1.2 kV=0.2080002494301389 Vminpu=0.8 Vmaxpu=1.2 model=1 kW=5.87006 kvar=1.1888915798743651 Phases=2

New Load.load_p4ulv15745 conn=wye bus1=p4ulv15745.1.2 kV=0.2080002494301389 Vminpu=0.8 Vmaxpu=1.2 model=1 kW=5.29005 kvar=1.0686419089616372 Phases=2

New Load.load_p4ulv15746 conn=wye bus1=p4ulv15746.1.2 kV=0.2080002494301389 Vminpu=0.8 Vmaxpu=1.2 model=1 kW=3.99004 kvar=0.8102121782761024 Phases=2

New Load.load_p4ulv15748 conn=wye bus1=p4ulv15748.1.2 kV=0.2080002494301389 Vminpu=0.8 Vmaxpu=1.2 model=1 kW=2.00002 kvar=0.4102885228098566 Phases=2

New Load.load_p4ulv15749 conn=wye bus1=p4ulv15749.1.2 kV=0.2080002494301389 Vminpu=0.8 Vmaxpu=1.2 model=1 kW=9.08009 kvar=1.8390344469224207 Phases=2

New Load.load_p4ulv16178 conn=wye bus1=p4ulv16178.1.2 kV=0.2080002494301389 Vminpu=0.8 Vmaxpu=1.2 model=1 kW=1.25001 kvar=0.40997059545635767 Phases=2

New Load.load_p4ulv16179 conn=wye bus1=p4ulv16179.1.2 kV=0.2080002494301389 Vminpu=0.8 Vmaxpu=1.2 model=1 kW=5.420050000000001 kvar=1.1005880935693348 Phases=2

New Load.load_p4ulv16180 conn=wye bus1=p4ulv16180.1.2 kV=0.2080002494301389 Vminpu=0.8 Vmaxpu=1.2 model=1 kW=5.40005 kvar=1.0993492384814623 Phases=2

New Load.load_p4ulv16181 conn=wye bus1=p4ulv16181.1.2 kV=0.2080002494301389 Vminpu=0.8 Vmaxpu=1.2 model=1 kW=2.46002 kvar=0.49952836633286324 Phases=2

New Load.load_p4ulv16629 conn=wye bus1=p4ulv16629.1.2 kV=0.2080002494301389 Vminpu=0.8 Vmaxpu=1.2 model=1 kW=5.380050000000001 kvar=1.0896474898558242 Phases=2

New Load.load_p4ulv16630 conn=wye bus1=p4ulv16630.1.2 kV=0.2080002494301389 Vminpu=0.8 Vmaxpu=1.2 model=1 kW=4.87005 kvar=0.9889058302206326 Phases=2

New Load.load_p4ulv17085 conn=wye bus1=p4ulv17085.1.2 kV=0.2080002494301389 Vminpu=0.8 Vmaxpu=1.2 model=1 kW=7.39007 kvar=1.5006177161915362 Phases=2

New Load.load_p4ulv17505 conn=wye bus1=p4ulv17505.1.2 kV=0.2080002494301389 Vminpu=0.8 Vmaxpu=1.2 model=1 kW=4.94005 kvar=1.0005321664784275 Phases=2

New Load.load_p4ulv17506 conn=wye bus1=p4ulv17506.1.2 kV=0.2080002494301389 Vminpu=0.8 Vmaxpu=1.2 model=1 kW=5.53006 kvar=1.1200297390827405 Phases=2

New Load.load_p4ulv17589 conn=wye bus1=p4ulv17589.1.2 kV=0.2080002494301389 Vminpu=0.8 Vmaxpu=1.2 model=1 kW=2.30002 kvar=0.46944046466083733 Phases=2

New Load.load_p4ulv17950 conn=wye bus1=p4ulv17950.1.2 kV=0.2080002494301389 Vminpu=0.8 Vmaxpu=1.2 model=1 kW=6.51007 kvar=1.3185158937715642 Phases=2

New Load.load_p4ulv18361 conn=wye bus1=p4ulv18361.1.2 kV=0.2080002494301389 Vminpu=0.8 Vmaxpu=1.2 model=1 kW=10.1301 kvar=2.0622990010724087 Phases=2

New Load.load_p4ulv18362 conn=wye bus1=p4ulv18362.1.2 kV=0.2080002494301389 Vminpu=0.8 Vmaxpu=1.2 model=1 kW=5.31005 kvar=1.0810269208245273 Phases=2

New Load.load_p4ulv18769 conn=wye bus1=p4ulv18769.1.2 kV=0.2080002494301389 Vminpu=0.8 Vmaxpu=1.2 model=1 kW=8.43008 kvar=1.7118007538375068 Phases=2

New Load.load_p4ulv18770 conn=wye bus1=p4ulv18770.1.2 kV=0.2080002494301389 Vminpu=0.8 Vmaxpu=1.2 model=1 kW=8.14008 kvar=1.6486496852679053 Phases=2

New Load.load_p4ulv18771 conn=wye bus1=p4ulv18771.1.2 kV=0.2080002494301389 Vminpu=0.8 Vmaxpu=1.2 model=1 kW=4.93005 kvar=1.0010893498586726 Phases=2

New Load.load_p4ulv19176 conn=wye bus1=p4ulv19176.1.2 kV=0.2080002494301389 Vminpu=0.8 Vmaxpu=1.2 model=1 kW=6.270060000000001 kvar=1.269905510217453 Phases=2

New Load.load_p4ulv19178 conn=wye bus1=p4ulv19178.1.2 kV=0.2080002494301389 Vminpu=0.8 Vmaxpu=1.2 model=1 kW=7.84008 kvar=1.5919961440634443 Phases=2

New Load.load_p4ulv19180 conn=wye bus1=p4ulv19180.1.2 kV=0.2080002494301389 Vminpu=0.8 Vmaxpu=1.2 model=1 kW=6.09006 kvar=1.2398223763310365 Phases=2

New Load.load_p4ulv19590 conn=wye bus1=p4ulv19590.1.2 kV=0.2080002494301389 Vminpu=0.8 Vmaxpu=1.2 model=1 kW=8.03008 kvar=1.630577289583905 Phases=2

New Load.load_p4ulv19592 conn=wye bus1=p4ulv19592.1.2 kV=0.2080002494301389 Vminpu=0.8 Vmaxpu=1.2 model=1 kW=6.140060000000001 kvar=1.2500014416960006 Phases=2

New Load.load_p4ulv20043 conn=wye bus1=p4ulv20043.1.2 kV=0.2080002494301389 Vminpu=0.8 Vmaxpu=1.2 model=1 kW=10.2901 kvar=2.0894939237899677 Phases=2

New Load.load_p4ulv20044 conn=wye bus1=p4ulv20044.1.2 kV=0.2080002494301389 Vminpu=0.8 Vmaxpu=1.2 model=1 kW=5.53006 kvar=1.1200297390827405 Phases=2

New Load.load_p4ulv20045 conn=wye bus1=p4ulv20045.1.2 kV=0.2080002494301389 Vminpu=0.8 Vmaxpu=1.2 model=1 kW=1.91002 kvar=0.6298242311465005 Phases=2

New Load.load_p4ulv20468 conn=wye bus1=p4ulv20468.1.2 kV=0.2080002494301389 Vminpu=0.8 Vmaxpu=1.2 model=1 kW=8.400080000000003 kvar=1.7100992678185132 Phases=2

New Load.load_p4ulv20471 conn=wye bus1=p4ulv20471.1.2.3 kV=0.48 Vminpu=0.8 Vmaxpu=1.2 model=1 kW=22.3702 kvar=4.542462850114803 Phases=3

New Load.load_p4ulv20933 conn=wye bus1=p4ulv20933.1.2 kV=0.2080002494301389 Vminpu=0.8 Vmaxpu=1.2 model=1 kW=12.4701 kvar=2.5321618039720972 Phases=2

New Load.load_p4ulv21344 conn=wye bus1=p4ulv21344.1.2 kV=0.2080002494301389 Vminpu=0.8 Vmaxpu=1.2 model=1 kW=6.46006 kvar=1.30838712713042 Phases=2

New Load.load_p4ulv21345 conn=wye bus1=p4ulv21345.1.2 kV=0.2080002494301389 Vminpu=0.8 Vmaxpu=1.2 model=1 kW=6.41006 kvar=1.3016181981836055 Phases=2

New Load.load_p4ulv21347 conn=wye bus1=p4ulv21347.1.2 kV=0.2080002494301389 Vminpu=0.8 Vmaxpu=1.2 model=1 kW=7.38007 kvar=1.498587129585196 Phases=2

New Load.load_p4ulv21348 conn=wye bus1=p4ulv21348.1.2 kV=0.2080002494301389 Vminpu=0.8 Vmaxpu=1.2 model=1 kW=5.54006 kvar=1.1307416199202263 Phases=2

New Load.load_p4ulv21349 conn=wye bus1=p4ulv21349.1.2 kV=0.2080002494301389 Vminpu=0.8 Vmaxpu=1.2 model=1 kW=8.84009 kvar=1.7904260887165682 Phases=2

New Load.load_p4ulv21351 conn=wye bus1=p4ulv21351.1.2 kV=0.2080002494301389 Vminpu=0.8 Vmaxpu=1.2 model=1 kW=5.19005 kvar=1.0511658729428572 Phases=2

New Load.load_p4ulv21780 conn=wye bus1=p4ulv21780.1.2 kV=0.2080002494301389 Vminpu=0.8 Vmaxpu=1.2 model=1 kW=5.19005 kvar=1.0511658729428572 Phases=2

New Load.load_p4ulv21781 conn=wye bus1=p4ulv21781.1.2 kV=0.2080002494301389 Vminpu=0.8 Vmaxpu=1.2 model=1 kW=3.20003 kvar=1.049526167453227 Phases=2

New Load.load_p4ulv21782 conn=wye bus1=p4ulv21782.1.2 kV=0.2080002494301389 Vminpu=0.8 Vmaxpu=1.2 model=1 kW=5.04005 kvar=1.0207856490641993 Phases=2

New Load.load_p4ulv21783 conn=wye bus1=p4ulv21783.1.2 kV=0.2080002494301389 Vminpu=0.8 Vmaxpu=1.2 model=1 kW=4.80005 kvar=0.9696571100672596 Phases=2

New Load.load_p4ulv22213 conn=wye bus1=p4ulv22213.1.2 kV=0.2080002494301389 Vminpu=0.8 Vmaxpu=1.2 model=1 kW=6.45006 kvar=1.3097405446089656 Phases=2

New Load.load_p4ulv22216 conn=wye bus1=p4ulv22216.1.2 kV=0.2080002494301389 Vminpu=0.8 Vmaxpu=1.2 model=1 kW=5.35005 kvar=1.0891701731164982 Phases=2

New Load.load_p4ulv22622 conn=wye bus1=p4ulv22622.1.2 kV=0.2080002494301389 Vminpu=0.8 Vmaxpu=1.2 model=1 kW=5.340050000000001 kvar=1.078742398644737 Phases=2

New Load.load_p4ulv22623 conn=wye bus1=p4ulv22623.1.2 kV=0.2080002494301389 Vminpu=0.8 Vmaxpu=1.2 model=1 kW=10.3801 kvar=2.1077692032470283 Phases=2

New Load.load_p4ulv22624 conn=wye bus1=p4ulv22624.1.2 kV=0.2080002494301389 Vminpu=0.8 Vmaxpu=1.2 model=1 kW=2.66003 kvar=0.8695808963438292 Phases=2

New Load.load_p4ulv23044 conn=wye bus1=p4ulv23044.1.2 kV=0.2080002494301389 Vminpu=0.8 Vmaxpu=1.2 model=1 kW=12.3801 kvar=2.507401397601154 Phases=2

New Load.load_p4ulv23045 conn=wye bus1=p4ulv23045.1.2 kV=0.2080002494301389 Vminpu=0.8 Vmaxpu=1.2 model=1 kW=5.99006 kvar=1.2194642456011087 Phases=2

New Load.load_p4ulv23046 conn=wye bus1=p4ulv23046.1.2 kV=0.2080002494301389 Vminpu=0.8 Vmaxpu=1.2 model=1 kW=4.14004 kvar=0.8406709773712032 Phases=2

New Load.load_p4ulv23047 conn=wye bus1=p4ulv23047.1.2 kV=0.2080002494301389 Vminpu=0.8 Vmaxpu=1.2 model=1 kW=11.2701 kvar=2.2884914112112917 Phases=2

New Load.load_p4ulv23428 conn=wye bus1=p4ulv23428.1.2 kV=0.2080002494301389 Vminpu=0.8 Vmaxpu=1.2 model=1 kW=1.19001 kvar=0.23976744483355233 Phases=2

New Load.load_p4ulv23429 conn=wye bus1=p4ulv23429.1.2 kV=0.2080002494301389 Vminpu=0.8 Vmaxpu=1.2 model=1 kW=10.180100000000001 kvar=2.0724780664373723 Phases=2

New Load.load_p4ulv23431 conn=wye bus1=p4ulv23431.1.2 kV=0.2080002494301389 Vminpu=0.8 Vmaxpu=1.2 model=1 kW=4.74005 kvar=0.9600252013068835 Phases=2

New Load.load_p4ulv23794 conn=wye bus1=p4ulv23794.1.2 kV=0.2080002494301389 Vminpu=0.8 Vmaxpu=1.2 model=1 kW=6.18006 kvar=1.2613673959495373 Phases=2

New Load.load_p4ulv23795 conn=wye bus1=p4ulv23795.1.2 kV=0.2080002494301389 Vminpu=0.8 Vmaxpu=1.2 model=1 kW=4.85005 kvar=0.9899086641108747 Phases=2

New Load.load_p4ulv23796 conn=wye bus1=p4ulv23796.1.2 kV=0.2080002494301389 Vminpu=0.8 Vmaxpu=1.2 model=1 kW=7.36007 kvar=1.4906704957506258 Phases=2

New Load.load_p4ulv23797 conn=wye bus1=p4ulv23797.1.2 kV=0.2080002494301389 Vminpu=0.8 Vmaxpu=1.2 model=1 kW=6.23006 kvar=1.271572534701827 Phases=2

New Load.load_p4ulv24205 conn=wye bus1=p4ulv24205.1.2 kV=0.2080002494301389 Vminpu=0.8 Vmaxpu=1.2 model=1 kW=5.98006 kvar=1.2111704107187142 Phases=2

New Load.load_p4ulv24208 conn=wye bus1=p4ulv24208.1.2 kV=0.2080002494301389 Vminpu=0.8 Vmaxpu=1.2 model=1 kW=8.55009 kvar=1.7406384997264774 Phases=2

New Load.load_p4ulv24209 conn=wye bus1=p4ulv24209.1.2 kV=0.2080002494301389 Vminpu=0.8 Vmaxpu=1.2 model=1 kW=2.11002 kvar=0.42956063002762096 Phases=2

New Load.load_p4ulv24210 conn=wye bus1=p4ulv24210.1.2 kV=0.2080002494301389 Vminpu=0.8 Vmaxpu=1.2 model=1 kW=7.25007 kvar=1.4683916649062767 Phases=2

New Load.load_p4ulv24211 conn=wye bus1=p4ulv24211.1.2 kV=0.2080002494301389 Vminpu=0.8 Vmaxpu=1.2 model=1 kW=5.63006 kvar=1.1402832216685126 Phases=2

New Load.load_p4ulv24653 conn=wye bus1=p4ulv24653.1.2 kV=0.2080002494301389 Vminpu=0.8 Vmaxpu=1.2 model=1 kW=0.610006 kvar=0.20006601791341747 Phases=2

New Load.load_p4ulv24656 conn=wye bus1=p4ulv24656.1.2 kV=0.2080002494301389 Vminpu=0.8 Vmaxpu=1.2 model=1 kW=6.84007 kvar=1.3889354528428337 Phases=2

New Load.load_p4ulv24657 conn=wye bus1=p4ulv24657.1.2 kV=0.2080002494301389 Vminpu=0.8 Vmaxpu=1.2 model=1 kW=1.91002 kvar=0.6298242311465005 Phases=2

New Load.load_p4ulv24658 conn=wye bus1=p4ulv24658.1.2 kV=0.2080002494301389 Vminpu=0.8 Vmaxpu=1.2 model=1 kW=6.59007 kvar=1.341615065793748 Phases=2

New Load.load_p4ulv24659 conn=wye bus1=p4ulv24659.1.2 kV=0.2080002494301389 Vminpu=0.8 Vmaxpu=1.2 model=1 kW=9.7301 kvar=1.9808664781526977 Phases=2

New Load.load_p4ulv24660 conn=wye bus1=p4ulv24660.1.2 kV=0.2080002494301389 Vminpu=0.8 Vmaxpu=1.2 model=1 kW=6.24006 kvar=1.270359572425928 Phases=2

New Load.load_p4ulv24663 conn=wye bus1=p4ulv24663.1.2 kV=0.2080002494301389 Vminpu=0.8 Vmaxpu=1.2 model=1 kW=7.61008 kvar=1.5492700350520838 Phases=2

New Load.load_p4ulv24664 conn=wye bus1=p4ulv24664.1.2 kV=0.2080002494301389 Vminpu=0.8 Vmaxpu=1.2 model=1 kW=7.33007 kvar=1.488434196553496 Phases=2
