New Line.l(r:p1udm106-p1ulv38) Units=km Length=0.0163925 bus1=p1udm106.1.2 bus2=p1ulv38.1.2 switch=n enabled=y phases=2 Linecode=1P_UG_AL_1/0_Brenau_0_416_0_2_2_2_2

New Line.l(r:p1udm106-p1ulv57432) Units=km Length=0.0163056 bus1=p1udm106.1.2 bus2=p1ulv57432.1.2 switch=n enabled=y phases=2 Linecode=1P_UG_AL_1/0_Brenau_0_416_0_2_2_2_2

New Line.l(r:p1udm106-p1udt37lv) Units=km Length=0.009694350000000001 bus1=p1udt37lv.1.2 bus2=p1udm106.1.2 switch=n enabled=y phases=2 Linecode=1P_UG_AL_4/0_Sweetbriar_0_416_0_2_2_2_2

New Line.l(r:p1udm107-p1ulv15729) Units=km Length=0.0160197 bus1=p1udm107.1.2 bus2=p1ulv15729.1.2 switch=n enabled=y phases=2 Linecode=1P_UG_AL_4/0_Sweetbriar_0_416_0_2_2_2_2

New Line.l(r:p1udm107-p1ulv47497) Units=km Length=0.0169287 bus1=p1udm107.1.2 bus2=p1ulv47497.1.2 switch=n enabled=y phases=2 Linecode=1P_UG_AL_1/0_Brenau_0_416_0_2_2_2_2

New Line.l(r:p1udm107-p1udt37lv) Units=km Length=0.009703410000000003 bus1=p1udt37lv.1.2 bus2=p1udm107.1.2 switch=n enabled=y phases=2 Linecode=1P_UG_AL_4/0_Sweetbriar_0_416_0_2_2_2_2

New Line.l(r:p1udt47lv-p1ulv13270) Units=km Length=0.0150001 bus1=p1udt47lv.1.2 bus2=p1ulv13270.1.2 switch=n enabled=y phases=2 Linecode=1P_UG_AL_1/0_Brenau_0_416_0_2_2_2_2

New Line.l(r:p1udm139-p1ulv35539) Units=km Length=0.0153173 bus1=p1udm139.1.2 bus2=p1ulv35539.1.2 switch=n enabled=y phases=2 Linecode=1P_UG_AL_1/0_Brenau_0_416_0_2_2_2_2

New Line.l(r:p1udm135-p1ulv48) Units=km Length=0.0154001 bus1=p1udm135.1.2 bus2=p1ulv48.1.2 switch=n enabled=y phases=2 Linecode=1P_UG_AL_1/0_Brenau_0_416_0_2_2_2_2

New Line.l(r:p1udm135-p1ulv33626) Units=km Length=0.0158557 bus1=p1udm135.1.2 bus2=p1ulv33626.1.2 switch=n enabled=y phases=2 Linecode=1P_UG_AL_1/0_Brenau_0_416_0_2_2_2_2

New Line.l(r:p1udm135-p1udm139) Units=km Length=0.00808231 bus1=p1udm139.1.2 bus2=p1udm135.1.2 switch=n enabled=y phases=2 Linecode=1P_UG_AL_4/0_Sweetbriar_0_416_0_2_2_2_2

New Line.l(r:p1udm139-p1udt47lv) Units=km Length=0.00808231 bus1=p1udt47lv.1.2 bus2=p1udm139.1.2 switch=n enabled=y phases=2 Linecode=1P_UG_AL_4/0_Sweetbriar_0_416_0_2_2_2_2

New Line.l(r:p1udm140-p1ulv37418) Units=km Length=0.0175701 bus1=p1udm140.1.2 bus2=p1ulv37418.1.2 switch=n enabled=y phases=2 Linecode=1P_UG_AL_1/0_Brenau_0_416_0_2_2_2_2

New Line.l(r:p1udm136-p1ulv5760) Units=km Length=0.0162177 bus1=p1udm136.1.2 bus2=p1ulv5760.1.2 switch=n enabled=y phases=2 Linecode=1P_UG_AL_1/0_Brenau_0_416_0_2_2_2_2

New Line.l(r:p1udm136-p1udm140) Units=km Length=0.0188529 bus1=p1udm140.1.2 bus2=p1udm136.1.2 switch=n enabled=y phases=2 Linecode=1P_UG_AL_1/0_Brenau_0_416_0_2_2_2_2

New Line.l(r:p1udm140-p1udt47lv) Units=km Length=0.0117361 bus1=p1udt47lv.1.2 bus2=p1udm140.1.2 switch=n enabled=y phases=2 Linecode=1P_UG_AL_2/0_Converse_0_416_0_2_2_2_2

New Line.l(r:p1udt49lv-p1ulv62972) Units=km Length=0.0163593 bus1=p1udt49lv.1.2 bus2=p1ulv62972.1.2 switch=n enabled=y phases=2 Linecode=1P_UG_AL_1/0_Brenau_0_416_0_2_2_2_2

New Line.l(r:p1udm142-p1ulv50) Units=km Length=0.0154668 bus1=p1udm142.1.2 bus2=p1ulv50.1.2 switch=n enabled=y phases=2 Linecode=1P_UG_AL_1/0_Brenau_0_416_0_2_2_2_2

New Line.l(r:p1udm142-p1ulv8277) Units=km Length=0.0151477 bus1=p1udm142.1.2 bus2=p1ulv8277.1.2 switch=n enabled=y phases=2 Linecode=1P_UG_AL_1/0_Brenau_0_416_0_2_2_2_2

New Line.l(r:p1udm142-p1udt49lv) Units=km Length=0.00966783 bus1=p1udt49lv.1.2 bus2=p1udm142.1.2 switch=n enabled=y phases=2 Linecode=1P_UG_AL_4/0_Sweetbriar_0_416_0_2_2_2_2

New Line.l(r:p1udm143-p1ulv3270) Units=km Length=0.015563600000000002 bus1=p1udm143.1.2 bus2=p1ulv3270.1.2 switch=n enabled=y phases=2 Linecode=1P_UG_AL_4/0_Sweetbriar_0_416_0_2_2_2_2

New Line.l(r:p1udm143-p1udt49lv) Units=km Length=0.00966168 bus1=p1udt49lv.1.2 bus2=p1udm143.1.2 switch=n enabled=y phases=2 Linecode=1P_UG_AL_4/0_Sweetbriar_0_416_0_2_2_2_2

New Line.l(r:p1udt50lv-p1ulv4500) Units=km Length=0.014528300000000001 bus1=p1udt50lv.1.2 bus2=p1ulv4500.1.2 switch=n enabled=y phases=2 Linecode=1P_UG_AL_1/0_Brenau_0_416_0_2_2_2_2

New Line.l(r:p1udm148-p1ulv8914) Units=km Length=0.0162526 bus1=p1udm148.1.2 bus2=p1ulv8914.1.2 switch=n enabled=y phases=2 Linecode=1P_UG_AL_1/0_Brenau_0_416_0_2_2_2_2

New Line.l(r:p1udm148-p1ulv36797) Units=km Length=0.0166382 bus1=p1udm148.1.2 bus2=p1ulv36797.1.2 switch=n enabled=y phases=2 Linecode=1P_UG_AL_1/0_Brenau_0_416_0_2_2_2_2

New Line.l(r:p1udm148-p1udt50lv) Units=km Length=0.00956432 bus1=p1udt50lv.1.2 bus2=p1udm148.1.2 switch=n enabled=y phases=2 Linecode=1P_UG_AL_4/0_Sweetbriar_0_416_0_2_2_2_2

New Line.l(r:p1udm150-p1ulv55011) Units=km Length=0.0162772 bus1=p1udm150.1.2 bus2=p1ulv55011.1.2 switch=n enabled=y phases=2 Linecode=1P_UG_AL_1/0_Brenau_0_416_0_2_2_2_2

New Line.l(r:p1udm146-p1ulv51) Units=km Length=0.0116493 bus1=p1udm146.1.2 bus2=p1ulv51.1.2 switch=n enabled=y phases=2 Linecode=1P_UG_AL_1/0_Brenau_0_416_0_2_2_2_2

New Line.l(r:p1udm146-p1udm150) Units=km Length=0.0191076 bus1=p1udm150.1.2 bus2=p1udm146.1.2 switch=n enabled=y phases=2 Linecode=1P_UG_AL_1/0_Brenau_0_416_0_2_2_2_2

New Line.l(r:p1udm150-p1udt50lv) Units=km Length=0.00955316 bus1=p1udt50lv.1.2 bus2=p1udm150.1.2 switch=n enabled=y phases=2 Linecode=1P_UG_AL_4/0_Sweetbriar_0_416_0_2_2_2_2

New Line.l(r:p1udm2528-p1ulv699) Units=km Length=0.0157549 bus1=p1udm2528.1.2 bus2=p1ulv699.1.2 switch=n enabled=y phases=2 Linecode=1P_UG_AL_1/0_Brenau_0_416_0_2_2_2_2

New Line.l(r:p1udm2528-p1ulv10132) Units=km Length=0.012477200000000003 bus1=p1udm2528.1.2 bus2=p1ulv10132.1.2 switch=n enabled=y phases=2 Linecode=1P_UG_AL_1/0_Brenau_0_416_0_2_2_2_2

New Line.l(r:p1udm2533-p1ulv62310) Units=km Length=0.0164045 bus1=p1udm2533.1.2 bus2=p1ulv62310.1.2 switch=n enabled=y phases=2 Linecode=1P_OH_AL_2/0_Rucina_0_416_0_2_2_2_2

New Line.l(r:p1udm2528-p1udm2533) Units=km Length=0.09076230000000002 bus1=p1udm2528.1.2 bus2=p1udm2533.1.2 switch=n enabled=y phases=2 Linecode=1P_OH_AL_4/0_Zuzara_0_416_0_2_2_2_2

New Line.l(r:p1udm2528-p1udt689lv) Units=km Length=0.0266774 bus1=p1udt689lv.1.2 bus2=p1udm2528.1.2 switch=n enabled=y phases=2 Linecode=1P_UG_AL_4/0_Sweetbriar_0_416_0_2_2_2_2

New Line.l(r:p1udm2531-p1ulv32300) Units=km Length=0.0135535 bus1=p1udm2531.1.2 bus2=p1ulv32300.1.2 switch=n enabled=y phases=2 Linecode=1P_UG_AL_1/0_Brenau_0_416_0_2_2_2_2

New Line.l(r:p1udm2531-p1udt689lv) Units=km Length=0.009698600000000002 bus1=p1udt689lv.1.2 bus2=p1udm2531.1.2 switch=n enabled=y phases=2 Linecode=1P_UG_AL_1/0_Brenau_0_416_0_2_2_2_2

New Line.l(r:p1udm2532-p1ulv54366) Units=km Length=0.0145915 bus1=p1udm2532.1.2 bus2=p1ulv54366.1.2 switch=n enabled=y phases=2 Linecode=1P_UG_AL_1/0_Brenau_0_416_0_2_2_2_2

New Line.l(r:p1udm2529-p1ulv7022) Units=km Length=0.0170787 bus1=p1udm2529.1.2 bus2=p1ulv7022.1.2 switch=n enabled=y phases=2 Linecode=1P_UG_AL_1/0_Brenau_0_416_0_2_2_2_2

New Line.l(r:p1udm2529-p1udm2532) Units=km Length=0.00927238 bus1=p1udm2532.1.2 bus2=p1udm2529.1.2 switch=n enabled=y phases=2 Linecode=1P_UG_AL_1/0_Brenau_0_416_0_2_2_2_2

New Line.l(r:p1udm2532-p1udt689lv) Units=km Length=0.0282258 bus1=p1udt689lv.1.2 bus2=p1udm2532.1.2 switch=n enabled=y phases=2 Linecode=1P_UG_AL_4/0_Sweetbriar_0_416_0_2_2_2_2

New Line.l(r:p1udt694lv-p1ulv58609) Units=km Length=0.0151399 bus1=p1udt694lv.1.2 bus2=p1ulv58609.1.2 switch=n enabled=y phases=2 Linecode=1P_UG_AL_1/0_Brenau_0_416_0_2_2_2_2

New Line.l(r:p1udm2554-p1ulv704) Units=km Length=0.0171865 bus1=p1udm2554.1.2 bus2=p1ulv704.1.2 switch=n enabled=y phases=2 Linecode=1P_UG_AL_1/0_Brenau_0_416_0_2_2_2_2

New Line.l(r:p1udm2554-p1udt694lv) Units=km Length=0.0091444 bus1=p1udt694lv.1.2 bus2=p1udm2554.1.2 switch=n enabled=y phases=2 Linecode=1P_UG_AL_1/0_Brenau_0_416_0_2_2_2_2

New Line.l(r:p1udm2556-p1ulv51819) Units=km Length=0.017726 bus1=p1udm2556.1.2 bus2=p1ulv51819.1.2 switch=n enabled=y phases=2 Linecode=1P_UG_AL_1/0_Brenau_0_416_0_2_2_2_2

New Line.l(r:p1udm2555-p1ulv47500) Units=km Length=0.0166964 bus1=p1udm2555.1.2 bus2=p1ulv47500.1.2 switch=n enabled=y phases=2 Linecode=1P_UG_AL_1/0_Brenau_0_416_0_2_2_2_2

New Line.l(r:p1udm2555-p1udm2556) Units=km Length=0.00915295 bus1=p1udm2556.1.2 bus2=p1udm2555.1.2 switch=n enabled=y phases=2 Linecode=1P_UG_AL_1/0_Brenau_0_416_0_2_2_2_2

New Line.l(r:p1udm2556-p1udt694lv) Units=km Length=0.00913922 bus1=p1udt694lv.1.2 bus2=p1udm2556.1.2 switch=n enabled=y phases=2 Linecode=1P_UG_AL_4/0_Sweetbriar_0_416_0_2_2_2_2

New Line.l(r:p1udt695lv-p1ulv42445) Units=km Length=0.0170413 bus1=p1udt695lv.1.2 bus2=p1ulv42445.1.2 switch=n enabled=y phases=2 Linecode=1P_UG_AL_1/0_Brenau_0_416_0_2_2_2_2

New Line.l(r:p1udm2558-p1ulv705) Units=km Length=0.0157233 bus1=p1udm2558.1.2 bus2=p1ulv705.1.2 switch=n enabled=y phases=2 Linecode=1P_UG_AL_4/0_Sweetbriar_0_416_0_2_2_2_2

New Line.l(r:p1udm2558-p1ulv45637) Units=km Length=0.0149729 bus1=p1udm2558.1.2 bus2=p1ulv45637.1.2 switch=n enabled=y phases=2 Linecode=1P_UG_AL_1/0_Brenau_0_416_0_2_2_2_2

New Line.l(r:p1udm2558-p1udt695lv) Units=km Length=0.00950623 bus1=p1udt695lv.1.2 bus2=p1udm2558.1.2 switch=n enabled=y phases=2 Linecode=1P_UG_AL_4/0_Sweetbriar_0_416_0_2_2_2_2

New Line.l(r:p1udm2562-p1ulv60458) Units=km Length=0.016426 bus1=p1udm2562.1.2 bus2=p1ulv60458.1.2 switch=n enabled=y phases=2 Linecode=1P_UG_AL_1/0_Brenau_0_416_0_2_2_2_2

New Line.l(r:p1udm2559-p1ulv19644) Units=km Length=0.0117305 bus1=p1udm2559.1.2 bus2=p1ulv19644.1.2 switch=n enabled=y phases=2 Linecode=1P_UG_AL_1/0_Brenau_0_416_0_2_2_2_2

New Line.l(r:p1udm2559-p1udm2562) Units=km Length=0.0190039 bus1=p1udm2562.1.2 bus2=p1udm2559.1.2 switch=n enabled=y phases=2 Linecode=1P_UG_AL_1/0_Brenau_0_416_0_2_2_2_2

New Line.l(r:p1udm2562-p1udt695lv) Units=km Length=0.00950276 bus1=p1udt695lv.1.2 bus2=p1udm2562.1.2 switch=n enabled=y phases=2 Linecode=1P_UG_AL_4/0_Sweetbriar_0_416_0_2_2_2_2

New Line.l(r:p1udt696lv-p1ulv22808) Units=km Length=0.014774600000000002 bus1=p1udt696lv.1.2 bus2=p1ulv22808.1.2 switch=n enabled=y phases=2 Linecode=1P_UG_AL_1/0_Brenau_0_416_0_2_2_2_2

New Line.l(r:p1udm2563-p1ulv706) Units=km Length=0.0171695 bus1=p1udm2563.1.2 bus2=p1ulv706.1.2 switch=n enabled=y phases=2 Linecode=1P_UG_AL_1/0_Brenau_0_416_0_2_2_2_2

New Line.l(r:p1udm2563-p1ulv26624) Units=km Length=0.0178281 bus1=p1udm2563.1.2 bus2=p1ulv26624.1.2 switch=n enabled=y phases=2 Linecode=1P_UG_AL_1/0_Brenau_0_416_0_2_2_2_2

New Line.l(r:p1udm2563-p1udt696lv) Units=km Length=0.00959713 bus1=p1udt696lv.1.2 bus2=p1udm2563.1.2 switch=n enabled=y phases=2 Linecode=1P_UG_AL_4/0_Sweetbriar_0_416_0_2_2_2_2

New Line.l(r:p1udm2565-p1ulv23449) Units=km Length=0.018649 bus1=p1udm2565.1.2 bus2=p1ulv23449.1.2 switch=n enabled=y phases=2 Linecode=1P_UG_AL_1/0_Brenau_0_416_0_2_2_2_2

New Line.l(r:p1udm2565-p1udt696lv) Units=km Length=0.00959713 bus1=p1udt696lv.1.2 bus2=p1udm2565.1.2 switch=n enabled=y phases=2 Linecode=1P_UG_AL_1/0_Brenau_0_416_0_2_2_2_2

New Line.l(r:p1udm2567-p1ulv707) Units=km Length=0.0183677 bus1=p1udm2567.1.2 bus2=p1ulv707.1.2 switch=n enabled=y phases=2 Linecode=1P_UG_AL_1/0_Brenau_0_416_0_2_2_2_2

New Line.l(r:p1udm2567-p1ulv52474) Units=km Length=0.022037000000000005 bus1=p1udm2567.1.2 bus2=p1ulv52474.1.2 switch=n enabled=y phases=2 Linecode=1P_UG_AL_1/0_Brenau_0_416_0_2_2_2_2

New Line.l(r:p1udm2567-p1udt697lv) Units=km Length=0.009339490000000002 bus1=p1udt697lv.1.2 bus2=p1udm2567.1.2 switch=n enabled=y phases=2 Linecode=1P_UG_AL_4/0_Sweetbriar_0_416_0_2_2_2_2

New Line.l(r:p1udm2569-p1ulv59222) Units=km Length=0.015052 bus1=p1udm2569.1.2 bus2=p1ulv59222.1.2 switch=n enabled=y phases=2 Linecode=1P_UG_AL_1/0_Brenau_0_416_0_2_2_2_2

New Line.l(r:p1udm2569-p1udt697lv) Units=km Length=0.0593112 bus1=p1udt697lv.1.2 bus2=p1udm2569.1.2 switch=n enabled=y phases=2 Linecode=1P_UG_AL_1/0_Brenau_0_416_0_2_2_2_2

New Line.l(r:p1udm2571-p1ulv709) Units=km Length=0.017281 bus1=p1udm2571.1.2 bus2=p1ulv709.1.2 switch=n enabled=y phases=2 Linecode=1P_UG_AL_1/0_Brenau_0_416_0_2_2_2_2

New Line.l(r:p1udm2571-p1ulv64861) Units=km Length=0.0164527 bus1=p1udm2571.1.2 bus2=p1ulv64861.1.2 switch=n enabled=y phases=2 Linecode=1P_UG_AL_1/0_Brenau_0_416_0_2_2_2_2

New Line.l(r:p1udm2573-p1ulv27295) Units=km Length=0.0150177 bus1=p1udm2573.1.2 bus2=p1ulv27295.1.2 switch=n enabled=y phases=2 Linecode=1P_UG_AL_4/0_Sweetbriar_0_416_0_2_2_2_2

New Line.l(r:p1udm2571-p1udm2573) Units=km Length=0.00993326 bus1=p1udm2571.1.2 bus2=p1udm2573.1.2 switch=n enabled=y phases=2 Linecode=1P_UG_AL_4/0_Sweetbriar_0_416_0_2_2_2_2

New Line.l(r:p1udm2571-p1udt699lv) Units=km Length=0.00994182 bus1=p1udt699lv.1.2 bus2=p1udm2571.1.2 switch=n enabled=y phases=2 Linecode=1P_UG_AL_4/0_Sweetbriar_0_416_0_2_2_2_2

New Line.l(r:p1udm2572-p1ulv22164) Units=km Length=0.017026 bus1=p1udm2572.1.2 bus2=p1ulv22164.1.2 switch=n enabled=y phases=2 Linecode=1P_UG_AL_1/0_Brenau_0_416_0_2_2_2_2

New Line.l(r:p1udm2572-p1udt699lv) Units=km Length=0.0183419 bus1=p1udt699lv.1.2 bus2=p1udm2572.1.2 switch=n enabled=y phases=2 Linecode=1P_UG_AL_1/0_Brenau_0_416_0_2_2_2_2

New Line.l(r:p1udt1269lv-p1ulv61692) Units=km Length=0.022889500000000004 bus1=p1udt1269lv.1.2 bus2=p1ulv61692.1.2 switch=n enabled=y phases=2 Linecode=1P_UG_AL_1/0_Brenau_0_416_0_2_2_2_2

New Line.l(r:p1udm4670-p1ulv1306) Units=km Length=0.0267854 bus1=p1udm4670.1.2 bus2=p1ulv1306.1.2 switch=n enabled=y phases=2 Linecode=1P_UG_AL_1/0_Brenau_0_416_0_2_2_2_2

New Line.l(r:p1udm4670-p1udt1269lv) Units=km Length=0.013506 bus1=p1udt1269lv.1.2 bus2=p1udm4670.1.2 switch=n enabled=y phases=2 Linecode=1P_UG_AL_1/0_Brenau_0_416_0_2_2_2_2

New Line.l(r:p1udm4671-p1ulv13258) Units=km Length=0.0181704 bus1=p1udm4671.1.2 bus2=p1ulv13258.1.2 switch=n enabled=y phases=2 Linecode=1P_UG_AL_1/0_Brenau_0_416_0_2_2_2_2

New Line.l(r:p1udm4671-p1udt1269lv) Units=km Length=0.006749850000000001 bus1=p1udt1269lv.1.2 bus2=p1udm4671.1.2 switch=n enabled=y phases=2 Linecode=1P_UG_AL_1/0_Brenau_0_416_0_2_2_2_2

New Line.l(r:p1udm4673-p1ulv1307) Units=km Length=0.016662 bus1=p1udm4673.1.2 bus2=p1ulv1307.1.2 switch=n enabled=y phases=2 Linecode=1P_UG_AL_1/0_Brenau_0_416_0_2_2_2_2

New Line.l(r:p1udm4674-p1ulv1308) Units=km Length=0.0163999 bus1=p1udm4674.1.2 bus2=p1ulv1308.1.2 switch=n enabled=y phases=2 Linecode=1P_UG_AL_1/0_Brenau_0_416_0_2_2_2_2

New Line.l(r:p1udm4674-p1ulv42438) Units=km Length=0.0169495 bus1=p1udm4674.1.2 bus2=p1ulv42438.1.2 switch=n enabled=y phases=2 Linecode=1P_UG_AL_1/0_Brenau_0_416_0_2_2_2_2

New Line.l(r:p1udm4673-p1udm4674) Units=km Length=0.00768188 bus1=p1udm4673.1.2 bus2=p1udm4674.1.2 switch=n enabled=y phases=2 Linecode=1P_UG_AL_4/0_Sweetbriar_0_416_0_2_2_2_2

New Line.l(r:p1udm4673-p1udt1270lv) Units=km Length=0.00769166 bus1=p1udt1270lv.1.2 bus2=p1udm4673.1.2 switch=n enabled=y phases=2 Linecode=1P_UG_AL_4/0_Sweetbriar_0_416_0_2_2_2_2

New Line.l(r:p1udm4677-p1ulv43046) Units=km Length=0.0165256 bus1=p1udm4677.1.2 bus2=p1ulv43046.1.2 switch=n enabled=y phases=2 Linecode=1P_UG_AL_1/0_Brenau_0_416_0_2_2_2_2

New Line.l(r:p1udm4675-p1ulv26618) Units=km Length=0.0151982 bus1=p1udm4675.1.2 bus2=p1ulv26618.1.2 switch=n enabled=y phases=2 Linecode=1P_UG_AL_1/0_Brenau_0_416_0_2_2_2_2

New Line.l(r:p1udm4675-p1udm4677) Units=km Length=0.00768167 bus1=p1udm4677.1.2 bus2=p1udm4675.1.2 switch=n enabled=y phases=2 Linecode=1P_UG_AL_1/0_Brenau_0_416_0_2_2_2_2

New Line.l(r:p1udm4677-p1udt1270lv) Units=km Length=0.00768167 bus1=p1udt1270lv.1.2 bus2=p1udm4677.1.2 switch=n enabled=y phases=2 Linecode=1P_UG_AL_4/0_Sweetbriar_0_416_0_2_2_2_2

New Line.l(r:p1udm4689-p1ulv1313) Units=km Length=0.0165451 bus1=p1udm4689.1.2 bus2=p1ulv1313.1.2 switch=n enabled=y phases=2 Linecode=1P_UG_AL_1/0_Brenau_0_416_0_2_2_2_2

New Line.l(r:p1udm4689-p1udt1275lv) Units=km Length=0.0375663 bus1=p1udt1275lv.1.2 bus2=p1udm4689.1.2 switch=n enabled=y phases=2 Linecode=1P_UG_AL_1/0_Brenau_0_416_0_2_2_2_2

New Line.l(r:p1udm4690-p1ulv20269) Units=km Length=0.0186765 bus1=p1udm4690.1.2 bus2=p1ulv20269.1.2 switch=n enabled=y phases=2 Linecode=1P_UG_AL_1/0_Brenau_0_416_0_2_2_2_2

New Line.l(r:p1udm4690-p1ulv35541) Units=km Length=0.0155751 bus1=p1udm4690.1.2 bus2=p1ulv35541.1.2 switch=n enabled=y phases=2 Linecode=1P_UG_AL_1/0_Brenau_0_416_0_2_2_2_2

New Line.l(r:p1udm4690-p1udt1275lv) Units=km Length=0.00933814 bus1=p1udt1275lv.1.2 bus2=p1udm4690.1.2 switch=n enabled=y phases=2 Linecode=1P_UG_AL_4/0_Sweetbriar_0_416_0_2_2_2_2

New Line.l(r:p1udt1276lv-p1ulv16389) Units=km Length=0.0198502 bus1=p1udt1276lv.1.2 bus2=p1ulv16389.1.2 switch=n enabled=y phases=2 Linecode=1P_UG_AL_1/0_Brenau_0_416_0_2_2_2_2

New Line.l(r:p1udm4692-p1ulv1314) Units=km Length=0.0182616 bus1=p1udm4692.1.2 bus2=p1ulv1314.1.2 switch=n enabled=y phases=2 Linecode=1P_UG_AL_1/0_Brenau_0_416_0_2_2_2_2

New Line.l(r:p1udm4693-p1ulv13274) Units=km Length=0.0191845 bus1=p1udm4693.1.2 bus2=p1ulv13274.1.2 switch=n enabled=y phases=2 Linecode=1P_UG_AL_1/0_Brenau_0_416_0_2_2_2_2

New Line.l(r:p1udm4693-p1ulv58025) Units=km Length=0.0173219 bus1=p1udm4693.1.2 bus2=p1ulv58025.1.2 switch=n enabled=y phases=2 Linecode=1P_UG_AL_1/0_Brenau_0_416_0_2_2_2_2

New Line.l(r:p1udm4692-p1udm4693) Units=km Length=0.00987292 bus1=p1udm4692.1.2 bus2=p1udm4693.1.2 switch=n enabled=y phases=2 Linecode=1P_UG_AL_4/0_Sweetbriar_0_416_0_2_2_2_2

New Line.l(r:p1udm4692-p1udt1276lv) Units=km Length=0.00987292 bus1=p1udt1276lv.1.2 bus2=p1udm4692.1.2 switch=n enabled=y phases=2 Linecode=1P_UG_AL_4/0_Sweetbriar_0_416_0_2_2_2_2

New Line.l(r:p1udm4695-p1ulv20921) Units=km Length=0.0261206 bus1=p1udm4695.1.2 bus2=p1ulv20921.1.2 switch=n enabled=y phases=2 Linecode=1P_UG_AL_1/0_Brenau_0_416_0_2_2_2_2

New Line.l(r:p1udm4695-p1ulv29776) Units=km Length=0.0289608 bus1=p1udm4695.1.2 bus2=p1ulv29776.1.2 switch=n enabled=y phases=2 Linecode=1P_UG_AL_1/0_Brenau_0_416_0_2_2_2_2

New Line.l(r:p1udm4695-p1udt1276lv) Units=km Length=0.0119023 bus1=p1udt1276lv.1.2 bus2=p1udm4695.1.2 switch=n enabled=y phases=2 Linecode=1P_UG_AL_4/0_Sweetbriar_0_416_0_2_2_2_2

New Line.l(r:p1udt1279lv-p1ulv1317) Units=km Length=0.0151316 bus1=p1udt1279lv.1.2 bus2=p1ulv1317.1.2 switch=n enabled=y phases=2 Linecode=1P_UG_AL_1/0_Brenau_0_416_0_2_2_2_2

New Line.l(r:p1udt1279lv-p1ulv44350) Units=km Length=0.0165248 bus1=p1udt1279lv.1.2 bus2=p1ulv44350.1.2 switch=n enabled=y phases=2 Linecode=1P_UG_AL_1/0_Brenau_0_416_0_2_2_2_2

New Line.l(r:p1udm4711-p1ulv10144) Units=km Length=0.0154681 bus1=p1udm4711.1.2 bus2=p1ulv10144.1.2 switch=n enabled=y phases=2 Linecode=1P_UG_AL_1/0_Brenau_0_416_0_2_2_2_2

New Line.l(r:p1udm4711-p1udt1279lv) Units=km Length=0.008918490000000001 bus1=p1udt1279lv.1.2 bus2=p1udm4711.1.2 switch=n enabled=y phases=2 Linecode=1P_UG_AL_1/0_Brenau_0_416_0_2_2_2_2

New Line.l(r:p1udm4713-p1ulv64249) Units=km Length=0.014006900000000001 bus1=p1udm4713.1.2 bus2=p1ulv64249.1.2 switch=n enabled=y phases=2 Linecode=1P_UG_AL_1/0_Brenau_0_416_0_2_2_2_2

New Line.l(r:p1udm4713-p1udt1279lv) Units=km Length=0.0186836 bus1=p1udt1279lv.1.2 bus2=p1udm4713.1.2 switch=n enabled=y phases=2 Linecode=1P_UG_AL_1/0_Brenau_0_416_0_2_2_2_2

New Line.l(r:p1udt1280lv-p1ulv1318) Units=km Length=0.015061 bus1=p1udt1280lv.1.2 bus2=p1ulv1318.1.2 switch=n enabled=y phases=2 Linecode=1P_UG_AL_4/0_Sweetbriar_0_416_0_2_2_2_2

New Line.l(r:p1udm6806-p1ulv7673) Units=km Length=0.0159875 bus1=p1udm6806.1.2 bus2=p1ulv7673.1.2 switch=n enabled=y phases=2 Linecode=1P_UG_AL_1/0_Brenau_0_416_0_2_2_2_2

New Line.l(r:p1udm6806-p1ulv18989) Units=km Length=0.016198 bus1=p1udm6806.1.2 bus2=p1ulv18989.1.2 switch=n enabled=y phases=2 Linecode=1P_UG_AL_1/0_Brenau_0_416_0_2_2_2_2

New Line.l(r:p1udm6806-p1ulv29150) Units=km Length=0.0143196 bus1=p1udm6806.1.2 bus2=p1ulv29150.1.2 switch=n enabled=y phases=2 Linecode=1P_UG_AL_1/0_Brenau_0_416_0_2_2_2_2

New Line.l(r:p1udm6807-p1ulv13890) Units=km Length=0.0166441 bus1=p1udm6807.1.2 bus2=p1ulv13890.1.2 switch=n enabled=y phases=2 Linecode=1P_UG_AL_1/0_Brenau_0_416_0_2_2_2_2

New Line.l(r:p1udm6806-p1udm6807) Units=km Length=0.00944002 bus1=p1udm6806.1.2 bus2=p1udm6807.1.2 switch=n enabled=y phases=2 Linecode=1P_UG_AL_1/0_Brenau_0_416_0_2_2_2_2

New Line.l(r:p1udm6806-p1udt1878lv) Units=km Length=0.00944909 bus1=p1udt1878lv.1.2 bus2=p1udm6806.1.2 switch=n enabled=y phases=2 Linecode=1P_UG_AL_4/0_Sweetbriar_0_416_0_2_2_2_2

New Line.l(r:p1udm6809-p1ulv19647) Units=km Length=0.0162201 bus1=p1udm6809.1.2 bus2=p1ulv19647.1.2 switch=n enabled=y phases=2 Linecode=1P_UG_AL_1/0_Brenau_0_416_0_2_2_2_2

New Line.l(r:p1udm6805-p1ulv1970) Units=km Length=0.0160577 bus1=p1udm6805.1.2 bus2=p1ulv1970.1.2 switch=n enabled=y phases=2 Linecode=1P_UG_AL_1/0_Brenau_0_416_0_2_2_2_2

New Line.l(r:p1udm6805-p1udm6809) Units=km Length=0.00944909 bus1=p1udm6809.1.2 bus2=p1udm6805.1.2 switch=n enabled=y phases=2 Linecode=1P_UG_AL_1/0_Brenau_0_416_0_2_2_2_2

New Line.l(r:p1udm6809-p1udt1878lv) Units=km Length=0.00944002 bus1=p1udt1878lv.1.2 bus2=p1udm6809.1.2 switch=n enabled=y phases=2 Linecode=1P_UG_AL_4/0_Sweetbriar_0_416_0_2_2_2_2

New Line.l(r:p1udm6831-p1ulv16386) Units=km Length=0.0177001 bus1=p1udm6831.1.2 bus2=p1ulv16386.1.2 switch=n enabled=y phases=2 Linecode=1P_UG_AL_1/0_Brenau_0_416_0_2_2_2_2

New Line.l(r:p1udm6831-p1ulv34907) Units=km Length=0.0172457 bus1=p1udm6831.1.2 bus2=p1ulv34907.1.2 switch=n enabled=y phases=2 Linecode=1P_UG_AL_1/0_Brenau_0_416_0_2_2_2_2

New Line.l(r:p1udm6831-p1udt1883lv) Units=km Length=0.00879459 bus1=p1udt1883lv.1.2 bus2=p1udm6831.1.2 switch=n enabled=y phases=2 Linecode=1P_UG_AL_4/0_Sweetbriar_0_416_0_2_2_2_2

New Line.l(r:p1udm6832-p1ulv19650) Units=km Length=0.0188404 bus1=p1udm6832.1.2 bus2=p1ulv19650.1.2 switch=n enabled=y phases=2 Linecode=1P_UG_AL_1/0_Brenau_0_416_0_2_2_2_2

New Line.l(r:p1udm6832-p1ulv20268) Units=km Length=0.0182791 bus1=p1udm6832.1.2 bus2=p1ulv20268.1.2 switch=n enabled=y phases=2 Linecode=1P_UG_AL_4/0_Sweetbriar_0_416_0_2_2_2_2

New Line.l(r:p1udm6830-p1ulv1977) Units=km Length=0.0200217 bus1=p1udm6830.1.2 bus2=p1ulv1977.1.2 switch=n enabled=y phases=2 Linecode=1P_UG_AL_1/0_Brenau_0_416_0_2_2_2_2

New Line.l(r:p1udm6830-p1udm6832) Units=km Length=0.0160928 bus1=p1udm6832.1.2 bus2=p1udm6830.1.2 switch=n enabled=y phases=2 Linecode=1P_UG_AL_1/0_Brenau_0_416_0_2_2_2_2

New Line.l(r:p1udm6832-p1udt1883lv) Units=km Length=0.00878778 bus1=p1udt1883lv.1.2 bus2=p1udm6832.1.2 switch=n enabled=y phases=2 Linecode=1P_UG_AL_4/0_Sweetbriar_0_416_0_2_2_2_2

New Line.l(r:p1udt1884lv-p1ulv30407) Units=km Length=0.0110433 bus1=p1udt1884lv.1.2 bus2=p1ulv30407.1.2 switch=n enabled=y phases=2 Linecode=1P_UG_AL_1/0_Brenau_0_416_0_2_2_2_2

New Line.l(r:p1udm6835-p1ulv1978) Units=km Length=0.0193202 bus1=p1udm6835.1.2 bus2=p1ulv1978.1.2 switch=n enabled=y phases=2 Linecode=1P_UG_AL_1/0_Brenau_0_416_0_2_2_2_2

New Line.l(r:p1udm6835-p1ulv2597) Units=km Length=0.0186959 bus1=p1udm6835.1.2 bus2=p1ulv2597.1.2 switch=n enabled=y phases=2 Linecode=1P_UG_AL_1/0_Brenau_0_416_0_2_2_2_2

New Line.l(r:p1udm6835-p1udt1884lv) Units=km Length=0.009882520000000002 bus1=p1udt1884lv.1.2 bus2=p1udm6835.1.2 switch=n enabled=y phases=2 Linecode=1P_UG_AL_4/0_Sweetbriar_0_416_0_2_2_2_2

New Line.l(r:p1udm6838-p1ulv50574) Units=km Length=0.017336 bus1=p1udm6838.1.2 bus2=p1ulv50574.1.2 switch=n enabled=y phases=2 Linecode=1P_UG_AL_1/0_Brenau_0_416_0_2_2_2_2

New Line.l(r:p1udm6838-p1udt1884lv) Units=km Length=0.009882520000000002 bus1=p1udt1884lv.1.2 bus2=p1udm6838.1.2 switch=n enabled=y phases=2 Linecode=1P_UG_AL_1/0_Brenau_0_416_0_2_2_2_2

New Line.l(r:p1udt1885lv-p1ulv20922) Units=km Length=0.016623 bus1=p1udt1885lv.1.2 bus2=p1ulv20922.1.2 switch=n enabled=y phases=2 Linecode=1P_UG_AL_1/0_Brenau_0_416_0_2_2_2_2

New Line.l(r:p1udm6839-p1ulv1979) Units=km Length=0.0169433 bus1=p1udm6839.1.2 bus2=p1ulv1979.1.2 switch=n enabled=y phases=2 Linecode=1P_UG_AL_1/0_Brenau_0_416_0_2_2_2_2

New Line.l(r:p1udm6839-p1ulv60460) Units=km Length=0.018451800000000004 bus1=p1udm6839.1.2 bus2=p1ulv60460.1.2 switch=n enabled=y phases=2 Linecode=1P_UG_AL_1/0_Brenau_0_416_0_2_2_2_2

New Line.l(r:p1udm6839-p1udt1885lv) Units=km Length=0.00987292 bus1=p1udt1885lv.1.2 bus2=p1udm6839.1.2 switch=n enabled=y phases=2 Linecode=1P_UG_AL_4/0_Sweetbriar_0_416_0_2_2_2_2

New Line.l(r:p1udm6841-p1ulv42446) Units=km Length=0.0116355 bus1=p1udm6841.1.2 bus2=p1ulv42446.1.2 switch=n enabled=y phases=2 Linecode=1P_UG_AL_1/0_Brenau_0_416_0_2_2_2_2

New Line.l(r:p1udm6841-p1udt1885lv) Units=km Length=0.0494915 bus1=p1udt1885lv.1.2 bus2=p1udm6841.1.2 switch=n enabled=y phases=2 Linecode=1P_UG_AL_1/0_Brenau_0_416_0_2_2_2_2

New Line.l(r:p1udt2446lv-p1ulv2589) Units=km Length=0.0261517 bus1=p1udt2446lv.1.2 bus2=p1ulv2589.1.2 switch=n enabled=y phases=2 Linecode=1P_UG_AL_1/0_Brenau_0_416_0_2_2_2_2

New Line.l(r:p1udt2446lv-p1ulv8264) Units=km Length=0.0243128 bus1=p1udt2446lv.1.2 bus2=p1ulv8264.1.2 switch=n enabled=y phases=2 Linecode=1P_UG_AL_1/0_Brenau_0_416_0_2_2_2_2

New Line.l(r:p1udt2446lv-p1ulv15110) Units=km Length=0.0238728 bus1=p1udt2446lv.1.2 bus2=p1ulv15110.1.2 switch=n enabled=y phases=2 Linecode=1P_UG_AL_1/0_Brenau_0_416_0_2_2_2_2

New Line.l(r:p1udt2446lv-p1ulv43044) Units=km Length=0.0269762 bus1=p1udt2446lv.1.2 bus2=p1ulv43044.1.2 switch=n enabled=y phases=2 Linecode=1P_UG_AL_1/0_Brenau_0_416_0_2_2_2_2

New Line.l(r:p1udt2452lv-p1ulv2595) Units=km Length=0.0187173 bus1=p1udt2452lv.1.2 bus2=p1ulv2595.1.2 switch=n enabled=y phases=2 Linecode=1P_UG_AL_4/0_Sweetbriar_0_416_0_2_2_2_2

New Line.l(r:p1udt2453lv-p1ulv2596) Units=km Length=0.0169737 bus1=p1udt2453lv.1.2 bus2=p1ulv2596.1.2 switch=n enabled=y phases=2 Linecode=1P_UG_AL_1/0_Brenau_0_416_0_2_2_2_2

New Line.l(r:p1udt2454lv-p1ulv59823) Units=km Length=0.0184125 bus1=p1udt2454lv.1.2 bus2=p1ulv59823.1.2 switch=n enabled=y phases=2 Linecode=1P_UG_AL_1/0_Brenau_0_416_0_2_2_2_2

New Line.l(r:p1udm8827-p1ulv2598) Units=km Length=0.0169791 bus1=p1udm8827.1.2 bus2=p1ulv2598.1.2 switch=n enabled=y phases=2 Linecode=1P_UG_AL_1/0_Brenau_0_416_0_2_2_2_2

New Line.l(r:p1udm8829-p1ulv18323) Units=km Length=0.0167851 bus1=p1udm8829.1.2 bus2=p1ulv18323.1.2 switch=n enabled=y phases=2 Linecode=1P_UG_AL_1/0_Brenau_0_416_0_2_2_2_2

New Line.l(r:p1udm8827-p1udm8829) Units=km Length=0.0558356 bus1=p1udm8827.1.2 bus2=p1udm8829.1.2 switch=n enabled=y phases=2 Linecode=1P_UG_AL_1/0_Brenau_0_416_0_2_2_2_2

New Line.l(r:p1udm8827-p1udt2454lv) Units=km Length=0.0090689 bus1=p1udt2454lv.1.2 bus2=p1udm8827.1.2 switch=n enabled=y phases=2 Linecode=1P_UG_AL_4/0_Sweetbriar_0_416_0_2_2_2_2

New Line.l(r:p1udm8828-p1ulv8912) Units=km Length=0.0174907 bus1=p1udm8828.1.2 bus2=p1ulv8912.1.2 switch=n enabled=y phases=2 Linecode=1P_UG_AL_1/0_Brenau_0_416_0_2_2_2_2

New Line.l(r:p1udm8828-p1ulv33628) Units=km Length=0.016897500000000003 bus1=p1udm8828.1.2 bus2=p1ulv33628.1.2 switch=n enabled=y phases=2 Linecode=1P_UG_AL_1/0_Brenau_0_416_0_2_2_2_2

New Line.l(r:p1udm8831-p1ulv37420) Units=km Length=0.0174437 bus1=p1udm8831.1.2 bus2=p1ulv37420.1.2 switch=n enabled=y phases=2 Linecode=1P_UG_AL_1/0_Brenau_0_416_0_2_2_2_2

New Line.l(r:p1udm8828-p1udm8831) Units=km Length=0.0090689 bus1=p1udm8828.1.2 bus2=p1udm8831.1.2 switch=n enabled=y phases=2 Linecode=1P_UG_AL_1/0_Brenau_0_416_0_2_2_2_2

New Line.l(r:p1udm8828-p1udt2454lv) Units=km Length=0.018146 bus1=p1udt2454lv.1.2 bus2=p1udm8828.1.2 switch=n enabled=y phases=2 Linecode=1P_UG_AL_4/0_Sweetbriar_0_416_0_2_2_2_2

New Line.l(r:p1udt2455lv-p1ulv2599) Units=km Length=0.0172439 bus1=p1udt2455lv.1.2 bus2=p1ulv2599.1.2 switch=n enabled=y phases=2 Linecode=1P_UG_AL_1/0_Brenau_0_416_0_2_2_2_2

New Line.l(r:p1udm8834-p1ulv6408) Units=km Length=0.0177488 bus1=p1udm8834.1.2 bus2=p1ulv6408.1.2 switch=n enabled=y phases=2 Linecode=1P_UG_AL_1/0_Brenau_0_416_0_2_2_2_2

New Line.l(r:p1udm8835-p1ulv26627) Units=km Length=0.0153059 bus1=p1udm8835.1.2 bus2=p1ulv26627.1.2 switch=n enabled=y phases=2 Linecode=1P_UG_AL_1/0_Brenau_0_416_0_2_2_2_2

New Line.l(r:p1udm8837-p1ulv55008) Units=km Length=0.0149201 bus1=p1udm8837.1.2 bus2=p1ulv55008.1.2 switch=n enabled=y phases=2 Linecode=1P_UG_AL_1/0_Brenau_0_416_0_2_2_2_2

New Line.l(r:p1udm8835-p1udm8837) Units=km Length=0.00597116 bus1=p1udm8835.1.2 bus2=p1udm8837.1.2 switch=n enabled=y phases=2 Linecode=1P_UG_AL_1/0_Brenau_0_416_0_2_2_2_2

New Line.l(r:p1udm8834-p1udm8835) Units=km Length=0.00531221 bus1=p1udm8834.1.2 bus2=p1udm8835.1.2 switch=n enabled=y phases=2 Linecode=1P_UG_AL_4/0_Sweetbriar_0_416_0_2_2_2_2

New Line.l(r:p1udm8834-p1udt2455lv) Units=km Length=0.0106825 bus1=p1udt2455lv.1.2 bus2=p1udm8834.1.2 switch=n enabled=y phases=2 Linecode=1P_UG_AL_4/0_Sweetbriar_0_416_0_2_2_2_2

New Line.l(r:p1udm8838-p1ulv64245) Units=km Length=0.0141102 bus1=p1udm8838.1.2 bus2=p1ulv64245.1.2 switch=n enabled=y phases=2 Linecode=1P_UG_AL_1/0_Brenau_0_416_0_2_2_2_2

New Line.l(r:p1udm8836-p1ulv41182) Units=km Length=0.0166177 bus1=p1udm8836.1.2 bus2=p1ulv41182.1.2 switch=n enabled=y phases=2 Linecode=1P_UG_AL_1/0_Brenau_0_416_0_2_2_2_2

New Line.l(r:p1udm8836-p1udm8838) Units=km Length=0.00868106 bus1=p1udm8838.1.2 bus2=p1udm8836.1.2 switch=n enabled=y phases=2 Linecode=1P_UG_AL_1/0_Brenau_0_416_0_2_2_2_2

New Line.l(r:p1udm8838-p1udt2455lv) Units=km Length=0.0200343 bus1=p1udt2455lv.1.2 bus2=p1udm8838.1.2 switch=n enabled=y phases=2 Linecode=1P_UG_AL_4/0_Sweetbriar_0_416_0_2_2_2_2

New Line.l(r:p1udm8839-p1ulv2600) Units=km Length=0.0160685 bus1=p1udm8839.1.2 bus2=p1ulv2600.1.2 switch=n enabled=y phases=2 Linecode=1P_UG_AL_1/0_Brenau_0_416_0_2_2_2_2

New Line.l(r:p1udm8842-p1ulv17053) Units=km Length=0.0162569 bus1=p1udm8842.1.2 bus2=p1ulv17053.1.2 switch=n enabled=y phases=2 Linecode=1P_UG_AL_1/0_Brenau_0_416_0_2_2_2_2

New Line.l(r:p1udm8842-p1ulv36796) Units=km Length=0.0162118 bus1=p1udm8842.1.2 bus2=p1ulv36796.1.2 switch=n enabled=y phases=2 Linecode=1P_UG_AL_1/0_Brenau_0_416_0_2_2_2_2

New Line.l(r:p1udm8840-p1ulv4498) Units=km Length=0.0165426 bus1=p1udm8840.1.2 bus2=p1ulv4498.1.2 switch=n enabled=y phases=2 Linecode=1P_UG_AL_1/0_Brenau_0_416_0_2_2_2_2
