New Load.load_p3ulv380 conn=wye bus1=p3ulv380.1.2 kV=0.2080002494301389 Vminpu=0.8 Vmaxpu=1.2 model=1 kW=5.770060000000001 kvar=1.1686380972885935 Phases=2

New Load.load_p3ulv382 conn=wye bus1=p3ulv382.1.2 kV=0.2080002494301389 Vminpu=0.8 Vmaxpu=1.2 model=1 kW=5.91006 kvar=1.200088867866603 Phases=2

New Load.load_p3ulv383 conn=wye bus1=p3ulv383.1.2 kV=0.2080002494301389 Vminpu=0.8 Vmaxpu=1.2 model=1 kW=5.03005 kvar=1.0187603008056223 Phases=2

New Load.load_p3ulv384 conn=wye bus1=p3ulv384.1.2 kV=0.2080002494301389 Vminpu=0.8 Vmaxpu=1.2 model=1 kW=7.7500800000000005 kvar=1.5696611031833951 Phases=2

New Load.load_p3ulv385 conn=wye bus1=p3ulv385.1.2 kV=0.2080002494301389 Vminpu=0.8 Vmaxpu=1.2 model=1 kW=6.570070000000001 kvar=1.3306679833230275 Phases=2

New Load.load_p3ulv386 conn=wye bus1=p3ulv386.1.2 kV=0.2080002494301389 Vminpu=0.8 Vmaxpu=1.2 model=1 kW=6.30006 kvar=1.2792817455138652 Phases=2

New Load.load_p3ulv397 conn=wye bus1=p3ulv397.1.2 kV=0.2080002494301389 Vminpu=0.8 Vmaxpu=1.2 model=1 kW=3.25003 kvar=0.659946738820333 Phases=2

New Load.load_p3ulv1137 conn=wye bus1=p3ulv1137.1.2 kV=0.2080002494301389 Vminpu=0.8 Vmaxpu=1.2 model=1 kW=6.60007 kvar=1.3402013742906727 Phases=2

New Load.load_p3ulv1139 conn=wye bus1=p3ulv1139.1.2 kV=0.2080002494301389 Vminpu=0.8 Vmaxpu=1.2 model=1 kW=5.850060000000001 kvar=1.19096286257921 Phases=2

New Load.load_p3ulv1140 conn=wye bus1=p3ulv1140.1.2 kV=0.2080002494301389 Vminpu=0.8 Vmaxpu=1.2 model=1 kW=5.94006 kvar=1.2092851802361448 Phases=2

New Load.load_p3ulv1906 conn=wye bus1=p3ulv1906.1.2 kV=0.2080002494301389 Vminpu=0.8 Vmaxpu=1.2 model=1 kW=6.46006 kvar=1.30838712713042 Phases=2

New Load.load_p3ulv1907 conn=wye bus1=p3ulv1907.1.2 kV=0.2080002494301389 Vminpu=0.8 Vmaxpu=1.2 model=1 kW=7.630080000000001 kvar=1.5493538253303036 Phases=2

New Load.load_p3ulv1908 conn=wye bus1=p3ulv1908.1.2 kV=0.2080002494301389 Vminpu=0.8 Vmaxpu=1.2 model=1 kW=8.02008 kvar=1.628546702977565 Phases=2

New Load.load_p3ulv1923 conn=wye bus1=p3ulv1923.1.2 kV=0.2080002494301389 Vminpu=0.8 Vmaxpu=1.2 model=1 kW=6.22006 kvar=1.2597787689245672 Phases=2

New Load.load_p3ulv1931 conn=wye bus1=p3ulv1931.1.2 kV=0.2080002494301389 Vminpu=0.8 Vmaxpu=1.2 model=1 kW=6.47006 kvar=1.3104124753889972 Phases=2

New Load.load_p3ulv2720 conn=wye bus1=p3ulv2720.1.2 kV=0.2080002494301389 Vminpu=0.8 Vmaxpu=1.2 model=1 kW=6.47006 kvar=1.3104124753889972 Phases=2

New Load.load_p3ulv2721 conn=wye bus1=p3ulv2721.1.2 kV=0.2080002494301389 Vminpu=0.8 Vmaxpu=1.2 model=1 kW=7.31007 kvar=1.4881936070492277 Phases=2

New Load.load_p3ulv2724 conn=wye bus1=p3ulv2724.1.2 kV=0.2080002494301389 Vminpu=0.8 Vmaxpu=1.2 model=1 kW=6.25006 kvar=1.269128812482165 Phases=2

New Load.load_p3ulv2725 conn=wye bus1=p3ulv2725.1.2 kV=0.2080002494301389 Vminpu=0.8 Vmaxpu=1.2 model=1 kW=6.51007 kvar=1.3185158937715642 Phases=2

New Load.load_p3ulv2734 conn=wye bus1=p3ulv2734.1.2.3 kV=0.48 Vminpu=0.8 Vmaxpu=1.2 model=1 kW=31.950300000000002 kvar=6.487785124854627 Phases=3

New Load.load_p3ulv3496 conn=wye bus1=p3ulv3496.1.2 kV=0.2080002494301389 Vminpu=0.8 Vmaxpu=1.2 model=1 kW=7.40007 kvar=1.4987718887849348 Phases=2

New Load.load_p3ulv3515 conn=wye bus1=p3ulv3515.1.2 kV=0.2080002494301389 Vminpu=0.8 Vmaxpu=1.2 model=1 kW=6.24006 kvar=1.270359572425928 Phases=2

New Load.load_p3ulv3516 conn=wye bus1=p3ulv3516.1.2 kV=0.2080002494301389 Vminpu=0.8 Vmaxpu=1.2 model=1 kW=4.83005 kvar=0.9807834837952725 Phases=2

New Load.load_p3ulv3517 conn=wye bus1=p3ulv3517.1.2 kV=0.2080002494301389 Vminpu=0.8 Vmaxpu=1.2 model=1 kW=6.700070000000001 kvar=1.3605072403540732 Phases=2

New Load.load_p3ulv3518 conn=wye bus1=p3ulv3518.1.2 kV=0.2080002494301389 Vminpu=0.8 Vmaxpu=1.2 model=1 kW=6.55007 kvar=1.3300484412589724 Phases=2

New Load.load_p3ulv3519 conn=wye bus1=p3ulv3519.1.2 kV=0.2080002494301389 Vminpu=0.8 Vmaxpu=1.2 model=1 kW=5.97006 kvar=1.2091450624601374 Phases=2

New Load.load_p3ulv3520 conn=wye bus1=p3ulv3520.1.2 kV=0.2080002494301389 Vminpu=0.8 Vmaxpu=1.2 model=1 kW=5.41005 kvar=1.101385051554455 Phases=2

New Load.load_p3ulv3521 conn=wye bus1=p3ulv3521.1.2 kV=0.2080002494301389 Vminpu=0.8 Vmaxpu=1.2 model=1 kW=9.6901 kvar=1.967658727409565 Phases=2

New Load.load_p3ulv3522 conn=wye bus1=p3ulv3522.1.2 kV=0.2080002494301389 Vminpu=0.8 Vmaxpu=1.2 model=1 kW=6.63007 kvar=1.349758318085719 Phases=2

New Load.load_p3ulv3523 conn=wye bus1=p3ulv3523.1.2 kV=0.2080002494301389 Vminpu=0.8 Vmaxpu=1.2 model=1 kW=9.8201 kvar=1.9889122434053916 Phases=2

New Load.load_p3ulv3524 conn=wye bus1=p3ulv3524.1.2 kV=0.2080002494301389 Vminpu=0.8 Vmaxpu=1.2 model=1 kW=9.9501 kvar=2.0204539791744063 Phases=2

New Load.load_p3ulv4284 conn=wye bus1=p3ulv4284.1.2 kV=0.2080002494301389 Vminpu=0.8 Vmaxpu=1.2 model=1 kW=6.59007 kvar=1.341615065793748 Phases=2

New Load.load_p3ulv4285 conn=wye bus1=p3ulv4285.1.2 kV=0.2080002494301389 Vminpu=0.8 Vmaxpu=1.2 model=1 kW=9.44009 kvar=1.9218258632228342 Phases=2

New Load.load_p3ulv4302 conn=wye bus1=p3ulv4302.1.2 kV=0.2080002494301389 Vminpu=0.8 Vmaxpu=1.2 model=1 kW=8.32008 kvar=1.6894643011677664 Phases=2

New Load.load_p3ulv4303 conn=wye bus1=p3ulv4303.1.2 kV=0.2080002494301389 Vminpu=0.8 Vmaxpu=1.2 model=1 kW=7.72008 kvar=1.5716639788550044 Phases=2

New Load.load_p3ulv4304 conn=wye bus1=p3ulv4304.1.2 kV=0.2080002494301389 Vminpu=0.8 Vmaxpu=1.2 model=1 kW=6.64007 kvar=1.3483237207160328 Phases=2

New Load.load_p3ulv4315 conn=wye bus1=p3ulv4315.1.2.3 kV=0.48 Vminpu=0.8 Vmaxpu=1.2 model=1 kW=36.07039999999999 kvar=7.324407112532788 Phases=3

New Load.load_p3ulv4316 conn=wye bus1=p3ulv4316.1.2 kV=0.2080002494301389 Vminpu=0.8 Vmaxpu=1.2 model=1 kW=4.670050000000001 kvar=0.9507348841529898 Phases=2

New Load.load_p3ulv5088 conn=wye bus1=p3ulv5088.1.2 kV=0.2080002494301389 Vminpu=0.8 Vmaxpu=1.2 model=1 kW=7.51008 kvar=1.5210527449775426 Phases=2

New Load.load_p3ulv5097 conn=wye bus1=p3ulv5097.1.2 kV=0.2080002494301389 Vminpu=0.8 Vmaxpu=1.2 model=1 kW=5.48005 kvar=1.109900972441596 Phases=2

New Load.load_p3ulv5098 conn=wye bus1=p3ulv5098.1.2 kV=0.2080002494301389 Vminpu=0.8 Vmaxpu=1.2 model=1 kW=7.31007 kvar=1.4881936070492277 Phases=2

New Load.load_p3ulv5099 conn=wye bus1=p3ulv5099.1.2 kV=0.2080002494301389 Vminpu=0.8 Vmaxpu=1.2 model=1 kW=10.4401 kvar=2.119952722885068 Phases=2

New Load.load_p3ulv5111 conn=wye bus1=p3ulv5111.1.2 kV=0.2080002494301389 Vminpu=0.8 Vmaxpu=1.2 model=1 kW=6.18006 kvar=1.2613673959495373 Phases=2

New Load.load_p3ulv5887 conn=wye bus1=p3ulv5887.1.2 kV=0.2080002494301389 Vminpu=0.8 Vmaxpu=1.2 model=1 kW=7.42007 kvar=1.510587550852148 Phases=2

New Load.load_p3ulv5902 conn=wye bus1=p3ulv5902.1.2 kV=0.2080002494301389 Vminpu=0.8 Vmaxpu=1.2 model=1 kW=6.07006 kvar=1.2293985450459088 Phases=2

New Load.load_p3ulv5903 conn=wye bus1=p3ulv5903.1.2 kV=0.2080002494301389 Vminpu=0.8 Vmaxpu=1.2 model=1 kW=6.140060000000001 kvar=1.2500014416960006 Phases=2

New Load.load_p3ulv5904 conn=wye bus1=p3ulv5904.1.2 kV=0.2080002494301389 Vminpu=0.8 Vmaxpu=1.2 model=1 kW=6.950070000000001 kvar=1.4112719055125744 Phases=2

New Load.load_p3ulv5905 conn=wye bus1=p3ulv5905.1.2.3 kV=0.48 Vminpu=0.8 Vmaxpu=1.2 model=1 kW=44.03039999999999 kvar=8.94075405117946 Phases=3

New Load.load_p3ulv6692 conn=wye bus1=p3ulv6692.1.2 kV=0.2080002494301389 Vminpu=0.8 Vmaxpu=1.2 model=1 kW=8.92009 kvar=1.8113015281347753 Phases=2

New Load.load_p3ulv6693 conn=wye bus1=p3ulv6693.1.2 kV=0.2080002494301389 Vminpu=0.8 Vmaxpu=1.2 model=1 kW=11.260100000000001 kvar=2.292345878320592 Phases=2

New Load.load_p3ulv6694 conn=wye bus1=p3ulv6694.1.2 kV=0.2080002494301389 Vminpu=0.8 Vmaxpu=1.2 model=1 kW=11.1501 kvar=2.2582835617961585 Phases=2

New Load.load_p3ulv7484 conn=wye bus1=p3ulv7484.1.2 kV=0.2080002494301389 Vminpu=0.8 Vmaxpu=1.2 model=1 kW=8.13008 kvar=1.6508831556473056 Phases=2

New Load.load_p3ulv7485 conn=wye bus1=p3ulv7485.1.2 kV=0.2080002494301389 Vminpu=0.8 Vmaxpu=1.2 model=1 kW=6.30006 kvar=1.2792817455138652 Phases=2

New Load.load_p3ulv7486 conn=wye bus1=p3ulv7486.1.2 kV=0.2080002494301389 Vminpu=0.8 Vmaxpu=1.2 model=1 kW=5.73006 kvar=1.1605367042542845 Phases=2

New Load.load_p3ulv7487 conn=wye bus1=p3ulv7487.1.2 kV=0.2080002494301389 Vminpu=0.8 Vmaxpu=1.2 model=1 kW=6.19006 kvar=1.2601805070609642 Phases=2

New Load.load_p3ulv7499 conn=wye bus1=p3ulv7499.1.2 kV=0.2080002494301389 Vminpu=0.8 Vmaxpu=1.2 model=1 kW=6.28006 kvar=1.2785028247178991 Phases=2

New Load.load_p3ulv7500 conn=wye bus1=p3ulv7500.1.2 kV=0.2080002494301389 Vminpu=0.8 Vmaxpu=1.2 model=1 kW=6.49006 kvar=1.3212548992507473 Phases=2

New Load.load_p3ulv8283 conn=wye bus1=p3ulv8283.1.2 kV=0.2080002494301389 Vminpu=0.8 Vmaxpu=1.2 model=1 kW=6.37006 kvar=1.2901589928032249 Phases=2

New Load.load_p3ulv8298 conn=wye bus1=p3ulv8298.1.2 kV=0.2080002494301389 Vminpu=0.8 Vmaxpu=1.2 model=1 kW=6.570070000000001 kvar=1.3306679833230275 Phases=2

New Load.load_p3ulv8299 conn=wye bus1=p3ulv8299.1.2 kV=0.2080002494301389 Vminpu=0.8 Vmaxpu=1.2 model=1 kW=7.74008 kvar=1.5716902780000437 Phases=2

New Load.load_p3ulv8300 conn=wye bus1=p3ulv8300.1.2 kV=0.2080002494301389 Vminpu=0.8 Vmaxpu=1.2 model=1 kW=10.1501 kvar=2.061065711301207 Phases=2

New Load.load_p3ulv8301 conn=wye bus1=p3ulv8301.1.2 kV=0.2080002494301389 Vminpu=0.8 Vmaxpu=1.2 model=1 kW=5.21005 kvar=1.0606687900945995 Phases=2

New Load.load_p3ulv8302 conn=wye bus1=p3ulv8302.1.2 kV=0.2080002494301389 Vminpu=0.8 Vmaxpu=1.2 model=1 kW=6.94007 kvar=1.4092413189062343 Phases=2

New Load.load_p3ulv8303 conn=wye bus1=p3ulv8303.1.2 kV=0.2080002494301389 Vminpu=0.8 Vmaxpu=1.2 model=1 kW=7.5000800000000005 kvar=1.5190273967189654 Phases=2

New Load.load_p3ulv9062 conn=wye bus1=p3ulv9062.1.2 kV=0.2080002494301389 Vminpu=0.8 Vmaxpu=1.2 model=1 kW=0.640006 kvar=0.20990523349064538 Phases=2

New Load.load_p3ulv9063 conn=wye bus1=p3ulv9063.1.2 kV=0.2080002494301389 Vminpu=0.8 Vmaxpu=1.2 model=1 kW=5.91006 kvar=1.200088867866603 Phases=2

New Load.load_p3ulv9064 conn=wye bus1=p3ulv9064.1.2.3 kV=0.48 Vminpu=0.8 Vmaxpu=1.2 model=1 kW=44.6304 kvar=9.062589247559867 Phases=3

New Load.load_p3ulv9065 conn=wye bus1=p3ulv9065.1.2 kV=0.2080002494301389 Vminpu=0.8 Vmaxpu=1.2 model=1 kW=6.100060000000001 kvar=1.2386700133870643 Phases=2

New Load.load_p3ulv9066 conn=wye bus1=p3ulv9066.1.2 kV=0.2080002494301389 Vminpu=0.8 Vmaxpu=1.2 model=1 kW=7.17007 kvar=1.459692224027329 Phases=2

New Load.load_p3ulv9067 conn=wye bus1=p3ulv9067.1.2 kV=0.2080002494301389 Vminpu=0.8 Vmaxpu=1.2 model=1 kW=6.63007 kvar=1.349758318085719 Phases=2

New Load.load_p3ulv9786 conn=wye bus1=p3ulv9786.1.2 kV=0.2080002494301389 Vminpu=0.8 Vmaxpu=1.2 model=1 kW=7.00007 kvar=1.4214248385442743 Phases=2

New Load.load_p3ulv9803 conn=wye bus1=p3ulv9803.1.2 kV=0.2080002494301389 Vminpu=0.8 Vmaxpu=1.2 model=1 kW=6.68007 kvar=1.359937383450683 Phases=2

New Load.load_p3ulv9804 conn=wye bus1=p3ulv9804.1.2 kV=0.2080002494301389 Vminpu=0.8 Vmaxpu=1.2 model=1 kW=6.38006 kvar=1.298860955447827 Phases=2

New Load.load_p3ulv9805 conn=wye bus1=p3ulv9805.1.2 kV=0.2080002494301389 Vminpu=0.8 Vmaxpu=1.2 model=1 kW=6.16006 kvar=1.2508535330251045 Phases=2

New Load.load_p3ulv9806 conn=wye bus1=p3ulv9806.1.2 kV=0.2080002494301389 Vminpu=0.8 Vmaxpu=1.2 model=1 kW=6.61007 kvar=1.3387693763573363 Phases=2

New Load.load_p3ulv9807 conn=wye bus1=p3ulv9807.1.2 kV=0.2080002494301389 Vminpu=0.8 Vmaxpu=1.2 model=1 kW=8.870090000000001 kvar=1.8011485951030752 Phases=2

New Load.load_p3ulv9808 conn=wye bus1=p3ulv9808.1.2.3 kV=0.48 Vminpu=0.8 Vmaxpu=1.2 model=1 kW=30.250300000000003 kvar=6.14258540177682 Phases=3

New Load.load_p3ulv10602 conn=wye bus1=p3ulv10602.1.2 kV=0.2080002494301389 Vminpu=0.8 Vmaxpu=1.2 model=1 kW=6.20006 kvar=1.2589758794504644 Phases=2

New Load.load_p3ulv10603 conn=wye bus1=p3ulv10603.1.2 kV=0.2080002494301389 Vminpu=0.8 Vmaxpu=1.2 model=1 kW=6.00006 kvar=1.2215000586741016 Phases=2

New Load.load_p3ulv10604 conn=wye bus1=p3ulv10604.1.2 kV=0.2080002494301389 Vminpu=0.8 Vmaxpu=1.2 model=1 kW=6.08006 kvar=1.231423893304486 Phases=2

New Load.load_p3ulv10605 conn=wye bus1=p3ulv10605.1.2 kV=0.2080002494301389 Vminpu=0.8 Vmaxpu=1.2 model=1 kW=5.54006 kvar=1.1307416199202263 Phases=2

New Load.load_p3ulv10606 conn=wye bus1=p3ulv10606.1.2.3 kV=0.48 Vminpu=0.8 Vmaxpu=1.2 model=1 kW=22.5802 kvar=4.585105168847944 Phases=3

New Load.load_p3ulv10607 conn=wye bus1=p3ulv10607.1.2 kV=0.2080002494301389 Vminpu=0.8 Vmaxpu=1.2 model=1 kW=7.91008 kvar=1.610344427241867 Phases=2

New Load.load_p3ulv10608 conn=wye bus1=p3ulv10608.1.2 kV=0.2080002494301389 Vminpu=0.8 Vmaxpu=1.2 model=1 kW=7.6700800000000005 kvar=1.5614849134900406 Phases=2

New Load.load_p3ulv10628 conn=wye bus1=p3ulv10628.1.2.3 kV=0.48 Vminpu=0.8 Vmaxpu=1.2 model=1 kW=30.1703 kvar=6.126340708926099 Phases=3

New Load.load_p3ulv11419 conn=wye bus1=p3ulv11419.1.2 kV=0.2080002494301389 Vminpu=0.8 Vmaxpu=1.2 model=1 kW=6.820070000000001 kvar=1.388438766472582 Phases=2

New Load.load_p3ulv11433 conn=wye bus1=p3ulv11433.1.2 kV=0.2080002494301389 Vminpu=0.8 Vmaxpu=1.2 model=1 kW=6.40006 kvar=1.2995876115772655 Phases=2

New Load.load_p3ulv11434 conn=wye bus1=p3ulv11434.1.2.3 kV=0.48 Vminpu=0.8 Vmaxpu=1.2 model=1 kW=39.2604 kvar=7.972164239955262 Phases=3

New Load.load_p3ulv11435 conn=wye bus1=p3ulv11435.1.2 kV=0.2080002494301389 Vminpu=0.8 Vmaxpu=1.2 model=1 kW=12.2401 kvar=2.491855559473884 Phases=2

New Load.load_p3ulv11449 conn=wye bus1=p3ulv11449.1.2 kV=0.2080002494301389 Vminpu=0.8 Vmaxpu=1.2 model=1 kW=2.20002 kvar=0.45017485295514287 Phases=2

New Load.load_p3ulv11450 conn=wye bus1=p3ulv11450.1.2 kV=0.2080002494301389 Vminpu=0.8 Vmaxpu=1.2 model=1 kW=18.4902 kvar=3.7545952468548665 Phases=2

New Load.load_p3ulv12188 conn=wye bus1=p3ulv12188.1.2 kV=0.2080002494301389 Vminpu=0.8 Vmaxpu=1.2 model=1 kW=5.08005 kvar=1.0288870420985081 Phases=2

New Load.load_p3ulv12189 conn=wye bus1=p3ulv12189.1.2 kV=0.2080002494301389 Vminpu=0.8 Vmaxpu=1.2 model=1 kW=7.85008 kvar=1.5899145857691672 Phases=2

New Load.load_p3ulv12198 conn=wye bus1=p3ulv12198.1.2 kV=0.2080002494301389 Vminpu=0.8 Vmaxpu=1.2 model=1 kW=5.66006 kvar=1.149324202708102 Phases=2

New Load.load_p3ulv12200 conn=wye bus1=p3ulv12200.1.2.3 kV=0.48 Vminpu=0.8 Vmaxpu=1.2 model=1 kW=44.5204 kvar=9.040252794890124 Phases=3

New Load.load_p3ulv12201 conn=wye bus1=p3ulv12201.1.2.3 kV=0.48 Vminpu=0.8 Vmaxpu=1.2 model=1 kW=34.200300000000006 kvar=6.944667111281137 Phases=3

New Load.load_p3ulv12202 conn=wye bus1=p3ulv12202.1.2.3 kV=0.48 Vminpu=0.8 Vmaxpu=1.2 model=1 kW=44.78039999999999 kvar=9.093048046654966 Phases=3

New Load.load_p3ulv12930 conn=wye bus1=p3ulv12930.1.2 kV=0.2080002494301389 Vminpu=0.8 Vmaxpu=1.2 model=1 kW=7.34007 kvar=1.4904647831598359 Phases=2

New Load.load_p3ulv12947 conn=wye bus1=p3ulv12947.1.2 kV=0.2080002494301389 Vminpu=0.8 Vmaxpu=1.2 model=1 kW=5.96006 kvar=1.2102418008983036 Phases=2

New Load.load_p3ulv12948 conn=wye bus1=p3ulv12948.1.2 kV=0.2080002494301389 Vminpu=0.8 Vmaxpu=1.2 model=1 kW=5.35005 kvar=1.0891701731164982 Phases=2

New Load.load_p3ulv12949 conn=wye bus1=p3ulv12949.1.2 kV=0.2080002494301389 Vminpu=0.8 Vmaxpu=1.2 model=1 kW=5.76006 kvar=1.1696300687715029 Phases=2

New Load.load_p3ulv12950 conn=wye bus1=p3ulv12950.1.2 kV=0.2080002494301389 Vminpu=0.8 Vmaxpu=1.2 model=1 kW=6.17006 kvar=1.249652027631681 Phases=2

New Load.load_p3ulv12951 conn=wye bus1=p3ulv12951.1.2 kV=0.2080002494301389 Vminpu=0.8 Vmaxpu=1.2 model=1 kW=6.060060000000001 kvar=1.2305476669617041 Phases=2

New Load.load_p3ulv12952 conn=wye bus1=p3ulv12952.1.2 kV=0.2080002494301389 Vminpu=0.8 Vmaxpu=1.2 model=1 kW=4.85005 kvar=0.9797575997503596 Phases=2

New Load.load_p3ulv12953 conn=wye bus1=p3ulv12953.1.2 kV=0.2080002494301389 Vminpu=0.8 Vmaxpu=1.2 model=1 kW=13.6001 kvar=2.7616180904885215 Phases=2

New Load.load_p3ulv12954 conn=wye bus1=p3ulv12954.1.2 kV=0.2080002494301389 Vminpu=0.8 Vmaxpu=1.2 model=1 kW=11.920100000000001 kvar=2.4204795406233943 Phases=2

New Load.load_p3ulv13742 conn=wye bus1=p3ulv13742.1.2 kV=0.2080002494301389 Vminpu=0.8 Vmaxpu=1.2 model=1 kW=6.55007 kvar=1.3300484412589724 Phases=2

New Load.load_p3ulv13743 conn=wye bus1=p3ulv13743.1.2 kV=0.2080002494301389 Vminpu=0.8 Vmaxpu=1.2 model=1 kW=7.04007 kvar=1.4295471849696346 Phases=2

New Load.load_p3ulv13744 conn=wye bus1=p3ulv13744.1.2 kV=0.2080002494301389 Vminpu=0.8 Vmaxpu=1.2 model=1 kW=5.90006 kvar=1.2011419279441737 Phases=2

New Load.load_p3ulv13745 conn=wye bus1=p3ulv13745.1.2 kV=0.2080002494301389 Vminpu=0.8 Vmaxpu=1.2 model=1 kW=5.78006 kvar=1.1706634455471703 Phases=2

New Load.load_p3ulv13746 conn=wye bus1=p3ulv13746.1.2 kV=0.2080002494301389 Vminpu=0.8 Vmaxpu=1.2 model=1 kW=9.9201 kvar=2.009165725991164 Phases=2

New Load.load_p3ulv14499 conn=wye bus1=p3ulv14499.1.2 kV=0.2080002494301389 Vminpu=0.8 Vmaxpu=1.2 model=1 kW=6.41006 kvar=1.3016181981836055 Phases=2

New Load.load_p3ulv14516 conn=wye bus1=p3ulv14516.1.2 kV=0.2080002494301389 Vminpu=0.8 Vmaxpu=1.2 model=1 kW=5.890060000000001 kvar=1.199106114871181 Phases=2

New Load.load_p3ulv14517 conn=wye bus1=p3ulv14517.1.2 kV=0.2080002494301389 Vminpu=0.8 Vmaxpu=1.2 model=1 kW=7.31007 kvar=1.4805437544577398 Phases=2

New Load.load_p3ulv14518 conn=wye bus1=p3ulv14518.1.2 kV=0.2080002494301389 Vminpu=0.8 Vmaxpu=1.2 model=1 kW=4.90005 kvar=1.0001138028631646 Phases=2

New Load.load_p3ulv14519 conn=wye bus1=p3ulv14519.1.2.3 kV=0.48 Vminpu=0.8 Vmaxpu=1.2 model=1 kW=43.8404 kvar=8.902172905659 Phases=3

New Load.load_p3ulv14520 conn=wye bus1=p3ulv14520.1.2 kV=0.2080002494301389 Vminpu=0.8 Vmaxpu=1.2 model=1 kW=6.77007 kvar=1.3711749484945712 Phases=2

New Load.load_p3ulv14521 conn=wye bus1=p3ulv14521.1.2 kV=0.2080002494301389 Vminpu=0.8 Vmaxpu=1.2 model=1 kW=11.8501 kvar=2.4124588496271655 Phases=2

New Load.load_p3ulv14522 conn=wye bus1=p3ulv14522.1.2 kV=0.2080002494301389 Vminpu=0.8 Vmaxpu=1.2 model=1 kW=5.71006 kvar=1.1594771357398026 Phases=2

New Load.load_p3ulv14523 conn=wye bus1=p3ulv14523.1.2 kV=0.2080002494301389 Vminpu=0.8 Vmaxpu=1.2 model=1 kW=6.94007 kvar=1.4092413189062343 Phases=2

New Load.load_p3ulv14542 conn=wye bus1=p3ulv14542.1.2 kV=0.2080002494301389 Vminpu=0.8 Vmaxpu=1.2 model=1 kW=6.94007 kvar=1.4092413189062343 Phases=2

New Load.load_p3ulv15285 conn=wye bus1=p3ulv15285.1.2 kV=0.2080002494301389 Vminpu=0.8 Vmaxpu=1.2 model=1 kW=6.61007 kvar=1.3387693763573363 Phases=2

New Load.load_p3ulv15307 conn=wye bus1=p3ulv15307.1.2 kV=0.2080002494301389 Vminpu=0.8 Vmaxpu=1.2 model=1 kW=5.73006 kvar=1.1605367042542845 Phases=2

New Load.load_p3ulv15308 conn=wye bus1=p3ulv15308.1.2 kV=0.2080002494301389 Vminpu=0.8 Vmaxpu=1.2 model=1 kW=6.59007 kvar=1.341615065793748 Phases=2

New Load.load_p3ulv15309 conn=wye bus1=p3ulv15309.1.2 kV=0.2080002494301389 Vminpu=0.8 Vmaxpu=1.2 model=1 kW=13.2301 kvar=2.693401053700168 Phases=2

New Load.load_p3ulv15321 conn=wye bus1=p3ulv15321.1.2.3 kV=0.48 Vminpu=0.8 Vmaxpu=1.2 model=1 kW=39.3404 kvar=7.988408932805983 Phases=3

New Load.load_p3ulv16114 conn=wye bus1=p3ulv16114.1.2 kV=0.2080002494301389 Vminpu=0.8 Vmaxpu=1.2 model=1 kW=6.00006 kvar=1.2215000586741016 Phases=2

New Load.load_p3ulv16115 conn=wye bus1=p3ulv16115.1.2 kV=0.2080002494301389 Vminpu=0.8 Vmaxpu=1.2 model=1 kW=6.36006 kvar=1.2914652651519052 Phases=2

New Load.load_p3ulv16116 conn=wye bus1=p3ulv16116.1.2 kV=0.2080002494301389 Vminpu=0.8 Vmaxpu=1.2 model=1 kW=6.03006 kvar=1.2307519796926671 Phases=2

New Load.load_p3ulv16117 conn=wye bus1=p3ulv16117.1.2 kV=0.2080002494301389 Vminpu=0.8 Vmaxpu=1.2 model=1 kW=6.87007 kvar=1.3914284310803433 Phases=2

New Load.load_p3ulv16897 conn=wye bus1=p3ulv16897.1.2 kV=0.2080002494301389 Vminpu=0.8 Vmaxpu=1.2 model=1 kW=6.92007 kvar=1.4015551723732291 Phases=2

New Load.load_p3ulv16916 conn=wye bus1=p3ulv16916.1.2 kV=0.2080002494301389 Vminpu=0.8 Vmaxpu=1.2 model=1 kW=6.19006 kvar=1.2601805070609642 Phases=2

New Load.load_p3ulv16917 conn=wye bus1=p3ulv16917.1.2 kV=0.2080002494301389 Vminpu=0.8 Vmaxpu=1.2 model=1 kW=5.170050000000001 kvar=1.0498234284108339 Phases=2

New Load.load_p3ulv16927 conn=wye bus1=p3ulv16927.1.2 kV=0.2080002494301389 Vminpu=0.8 Vmaxpu=1.2 model=1 kW=6.11006 kvar=1.2407005999934042 Phases=2

New Load.load_p3ulv17631 conn=wye bus1=p3ulv17631.1.2 kV=0.2080002494301389 Vminpu=0.8 Vmaxpu=1.2 model=1 kW=6.44006 kvar=1.3110758338857833 Phases=2

New Load.load_p3ulv17645 conn=wye bus1=p3ulv17645.1.2 kV=0.2080002494301389 Vminpu=0.8 Vmaxpu=1.2 model=1 kW=6.740070000000001 kvar=1.3686295867794334 Phases=2

New Load.load_p3ulv17646 conn=wye bus1=p3ulv17646.1.2 kV=0.2080002494301389 Vminpu=0.8 Vmaxpu=1.2 model=1 kW=6.77007 kvar=1.378259701107618 Phases=2

New Load.load_p3ulv17647 conn=wye bus1=p3ulv17647.1.2 kV=0.2080002494301389 Vminpu=0.8 Vmaxpu=1.2 model=1 kW=6.77007 kvar=1.3711749484945712 Phases=2

New Load.load_p3ulv17648 conn=wye bus1=p3ulv17648.1.2.3 kV=0.48 Vminpu=0.8 Vmaxpu=1.2 model=1 kW=53.1605 kvar=10.794699928633985 Phases=3

New Load.load_p3ulv17649 conn=wye bus1=p3ulv17649.1.2 kV=0.2080002494301389 Vminpu=0.8 Vmaxpu=1.2 model=1 kW=1.38001 kvar=0.45015019350021623 Phases=2

New Load.load_p3ulv17669 conn=wye bus1=p3ulv17669.1.2 kV=0.2080002494301389 Vminpu=0.8 Vmaxpu=1.2 model=1 kW=7.06007 kvar=1.42991004799331 Phases=2

New Load.load_p3ulv18411 conn=wye bus1=p3ulv18411.1.2 kV=0.2080002494301389 Vminpu=0.8 Vmaxpu=1.2 model=1 kW=6.060060000000001 kvar=1.2305476669617041 Phases=2

New Load.load_p3ulv18412 conn=wye bus1=p3ulv18412.1.2 kV=0.2080002494301389 Vminpu=0.8 Vmaxpu=1.2 model=1 kW=2.97003 kvar=0.980410957502397 Phases=2

New Load.load_p3ulv19172 conn=wye bus1=p3ulv19172.1.2 kV=0.2080002494301389 Vminpu=0.8 Vmaxpu=1.2 model=1 kW=5.76006 kvar=1.1696300687715029 Phases=2

New Load.load_p3ulv19173 conn=wye bus1=p3ulv19173.1.2.3 kV=0.48 Vminpu=0.8 Vmaxpu=1.2 model=1 kW=19.390199999999997 kvar=6.373250536239191 Phases=3

New Load.load_p3ulv19189 conn=wye bus1=p3ulv19189.1.2.3 kV=0.48 Vminpu=0.8 Vmaxpu=1.2 model=1 kW=33.3903 kvar=6.780189596167593 Phases=3

New Load.load_p3ulv19921 conn=wye bus1=p3ulv19921.1.2 kV=0.2080002494301389 Vminpu=0.8 Vmaxpu=1.2 model=1 kW=6.55007 kvar=1.3300484412589724 Phases=2

New Load.load_p3ulv19922 conn=wye bus1=p3ulv19922.1.2 kV=0.2080002494301389 Vminpu=0.8 Vmaxpu=1.2 model=1 kW=6.64007 kvar=1.3483237207160328 Phases=2

New Load.load_p3ulv19943 conn=wye bus1=p3ulv19943.1.2 kV=0.2080002494301389 Vminpu=0.8 Vmaxpu=1.2 model=1 kW=7.19007 kvar=1.4600059840647355 Phases=2

New Load.load_p3ulv19944 conn=wye bus1=p3ulv19944.1.2 kV=0.2080002494301389 Vminpu=0.8 Vmaxpu=1.2 model=1 kW=7.37007 kvar=1.5004084854871844 Phases=2

New Load.load_p3ulv19945 conn=wye bus1=p3ulv19945.1.2 kV=0.2080002494301389 Vminpu=0.8 Vmaxpu=1.2 model=1 kW=6.350060000000001 kvar=1.2894346785455655 Phases=2

New Load.load_p3ulv19946 conn=wye bus1=p3ulv19946.1.2 kV=0.2080002494301389 Vminpu=0.8 Vmaxpu=1.2 model=1 kW=5.850060000000001 kvar=1.19096286257921 Phases=2

New Load.load_p3ulv19947 conn=wye bus1=p3ulv19947.1.2 kV=0.2080002494301389 Vminpu=0.8 Vmaxpu=1.2 model=1 kW=6.42006 kvar=1.300285734096111 Phases=2

New Load.load_p3ulv20691 conn=wye bus1=p3ulv20691.1.2 kV=0.2080002494301389 Vminpu=0.8 Vmaxpu=1.2 model=1 kW=6.700070000000001 kvar=1.3605072403540732 Phases=2

New Load.load_p3ulv20703 conn=wye bus1=p3ulv20703.1.2.3 kV=0.48 Vminpu=0.8 Vmaxpu=1.2 model=1 kW=34.9403 kvar=7.0949305201502995 Phases=3

New Load.load_p3ulv20704 conn=wye bus1=p3ulv20704.1.2 kV=0.2080002494301389 Vminpu=0.8 Vmaxpu=1.2 model=1 kW=12.1501 kvar=2.4671830325692152 Phases=2

New Load.load_p3ulv21493 conn=wye bus1=p3ulv21493.1.2 kV=0.2080002494301389 Vminpu=0.8 Vmaxpu=1.2 model=1 kW=6.28006 kvar=1.2686336247849492 Phases=2

New Load.load_p3ulv21494 conn=wye bus1=p3ulv21494.1.2 kV=0.2080002494301389 Vminpu=0.8 Vmaxpu=1.2 model=1 kW=5.68006 kvar=1.1504099629613984 Phases=2

New Load.load_p3ulv21508 conn=wye bus1=p3ulv21508.1.2.3 kV=0.48 Vminpu=0.8 Vmaxpu=1.2 model=1 kW=32.9003 kvar=6.68069085245693 Phases=3

New Load.load_p3ulv22270 conn=wye bus1=p3ulv22270.1.2 kV=0.2080002494301389 Vminpu=0.8 Vmaxpu=1.2 model=1 kW=7.17007 kvar=1.459692224027329 Phases=2

New Load.load_p3ulv22288 conn=wye bus1=p3ulv22288.1.2.3 kV=0.48 Vminpu=0.8 Vmaxpu=1.2 model=1 kW=32.8503 kvar=6.67053791942523 Phases=3

New Load.load_p3ulv23045 conn=wye bus1=p3ulv23045.1.2 kV=0.2080002494301389 Vminpu=0.8 Vmaxpu=1.2 model=1 kW=6.26006 kvar=1.2711593990885048 Phases=2

New Load.load_p3ulv23056 conn=wye bus1=p3ulv23056.1.2 kV=0.2080002494301389 Vminpu=0.8 Vmaxpu=1.2 model=1 kW=5.72006 kvar=1.1585113559957074 Phases=2

New Load.load_p3ulv23057 conn=wye bus1=p3ulv23057.1.2 kV=0.2080002494301389 Vminpu=0.8 Vmaxpu=1.2 model=1 kW=7.53008 kvar=1.529047959266903 Phases=2

New Load.load_p3ulv23058 conn=wye bus1=p3ulv2724.1.2 kV=0.2080002494301389 Vminpu=0.8 Vmaxpu=1.2 model=1 kW=6.58007 kvar=1.3395792527207553 Phases=2

New Load.load_p3ulv23059 conn=wye bus1=p3ulv23059.1.2 kV=0.2080002494301389 Vminpu=0.8 Vmaxpu=1.2 model=1 kW=6.44006 kvar=1.3110758338857833 Phases=2

New Load.load_p3ulv23060 conn=wye bus1=p3ulv23060.1.2 kV=0.2080002494301389 Vminpu=0.8 Vmaxpu=1.2 model=1 kW=5.29005 kvar=1.0686419089616372 Phases=2

New Load.load_p3ulv23061 conn=wye bus1=p3ulv23061.1.2 kV=0.2080002494301389 Vminpu=0.8 Vmaxpu=1.2 model=1 kW=11.6401 kvar=2.3575256264664413 Phases=2

New Load.load_p3ulv23073 conn=wye bus1=p3ulv23073.1.2 kV=0.2080002494301389 Vminpu=0.8 Vmaxpu=1.2 model=1 kW=6.48006 kvar=1.3192190861777544 Phases=2

New Load.load_p3ulv23835 conn=wye bus1=p3ulv23835.1.2 kV=0.2080002494301389 Vminpu=0.8 Vmaxpu=1.2 model=1 kW=6.80007 kvar=1.3808131064174733 Phases=2

New Load.load_p3ulv23836 conn=wye bus1=p3ulv23836.1.2 kV=0.2080002494301389 Vminpu=0.8 Vmaxpu=1.2 model=1 kW=6.270060000000001 kvar=1.269905510217453 Phases=2

New Load.load_p3ulv23852 conn=wye bus1=p3ulv23852.1.2 kV=0.2080002494301389 Vminpu=0.8 Vmaxpu=1.2 model=1 kW=6.55007 kvar=1.3300484412589724 Phases=2

New Load.load_p3ulv23853 conn=wye bus1=p3ulv23853.1.2.3 kV=0.48 Vminpu=0.8 Vmaxpu=1.2 model=1 kW=30.3803 kvar=6.16898302765924 Phases=3

New Load.load_p3ulv24687 conn=wye bus1=p3ulv24687.1.2 kV=0.2080002494301389 Vminpu=0.8 Vmaxpu=1.2 model=1 kW=7.43007 kvar=1.5087400626168963 Phases=2

New Load.load_p3ulv24708 conn=wye bus1=p3ulv24708.1.2 kV=0.2080002494301389 Vminpu=0.8 Vmaxpu=1.2 model=1 kW=6.020060000000001 kvar=1.219271803753023 Phases=2

New Load.load_p3ulv24721 conn=wye bus1=p3ulv24721.1.2.3 kV=0.48 Vminpu=0.8 Vmaxpu=1.2 model=1 kW=35.0904 kvar=7.125409625111464 Phases=3

New Load.load_p3ulv25486 conn=wye bus1=p3ulv25486.1.2 kV=0.2080002494301389 Vminpu=0.8 Vmaxpu=1.2 model=1 kW=5.43005 kvar=1.0997742311487098 Phases=2

New Load.load_p3ulv25487 conn=wye bus1=p3ulv25487.1.2 kV=0.2080002494301389 Vminpu=0.8 Vmaxpu=1.2 model=1 kW=6.89007 kvar=1.399088385874534 Phases=2

New Load.load_p3ulv25496 conn=wye bus1=p3ulv25496.1.2 kV=0.2080002494301389 Vminpu=0.8 Vmaxpu=1.2 model=1 kW=6.44006 kvar=1.3110758338857833 Phases=2

New Load.load_p3ulv26283 conn=wye bus1=p3ulv26283.1.2 kV=0.2080002494301389 Vminpu=0.8 Vmaxpu=1.2 model=1 kW=6.81007 kvar=1.37927634152888 Phases=2

New Load.load_p3ulv26300 conn=wye bus1=p3ulv26300.1.2 kV=0.2080002494301389 Vminpu=0.8 Vmaxpu=1.2 model=1 kW=6.33006 kvar=1.2787341144680489 Phases=2

New Load.load_p3ulv26301 conn=wye bus1=p3ulv26301.1.2 kV=0.2080002494301389 Vminpu=0.8 Vmaxpu=1.2 model=1 kW=6.30006 kvar=1.2792817455138652 Phases=2

New Load.load_p3ulv26302 conn=wye bus1=p3ulv26302.1.2 kV=0.2080002494301389 Vminpu=0.8 Vmaxpu=1.2 model=1 kW=5.890060000000001 kvar=1.199106114871181 Phases=2

New Load.load_p3ulv26314 conn=wye bus1=p3ulv26314.1.2 kV=0.2080002494301389 Vminpu=0.8 Vmaxpu=1.2 model=1 kW=14.2001 kvar=2.8834532868689244 Phases=2

New Load.load_p3ulv26315 conn=wye bus1=p3ulv26315.1.2.3 kV=0.48 Vminpu=0.8 Vmaxpu=1.2 model=1 kW=34.16030000000001 kvar=6.9365447648557765 Phases=3

New Load.load_p3ulv27069 conn=wye bus1=p3ulv27069.1.2 kV=0.2080002494301389 Vminpu=0.8 Vmaxpu=1.2 model=1 kW=5.340050000000001 kvar=1.078742398644737 Phases=2

New Load.load_p3ulv27070 conn=wye bus1=p3ulv27070.1.2 kV=0.2080002494301389 Vminpu=0.8 Vmaxpu=1.2 model=1 kW=5.890060000000001 kvar=1.199106114871181 Phases=2

New Load.load_p3ulv27071 conn=wye bus1=p3ulv27071.1.2 kV=0.2080002494301389 Vminpu=0.8 Vmaxpu=1.2 model=1 kW=5.27005 kvar=1.0701292944742342 Phases=2

New Load.load_p3ulv27072 conn=wye bus1=p3ulv27072.1.2 kV=0.2080002494301389 Vminpu=0.8 Vmaxpu=1.2 model=1 kW=6.96007 kvar=1.409656565407538 Phases=2

New Load.load_p3ulv27073 conn=wye bus1=p3ulv27073.1.2 kV=0.2080002494301389 Vminpu=0.8 Vmaxpu=1.2 model=1 kW=12.090100000000001 kvar=2.448666298102415 Phases=2

New Load.load_p3ulv27074 conn=wye bus1=p3ulv27074.1.2 kV=0.2080002494301389 Vminpu=0.8 Vmaxpu=1.2 model=1 kW=5.79006 kvar=1.1787479841412536 Phases=2

New Load.load_p3ulv27075 conn=wye bus1=p3ulv27075.1.2 kV=0.2080002494301389 Vminpu=0.8 Vmaxpu=1.2 model=1 kW=9.7801 kvar=1.9910455435176613 Phases=2

New Load.load_p3ulv27820 conn=wye bus1=p3ulv27820.1.2 kV=0.2080002494301389 Vminpu=0.8 Vmaxpu=1.2 model=1 kW=6.140060000000001 kvar=1.2500014416960006 Phases=2

New Load.load_p3ulv27821 conn=wye bus1=p3ulv27821.1.2 kV=0.2080002494301389 Vminpu=0.8 Vmaxpu=1.2 model=1 kW=5.69006 kvar=1.1613570361770957 Phases=2

New Load.load_p3ulv27822 conn=wye bus1=p3ulv27822.1.2 kV=0.2080002494301389 Vminpu=0.8 Vmaxpu=1.2 model=1 kW=6.92007 kvar=1.4015551723732291 Phases=2

New Load.load_p3ulv27823 conn=wye bus1=p3ulv27823.1.2 kV=0.2080002494301389 Vminpu=0.8 Vmaxpu=1.2 model=1 kW=8.76009 kvar=1.7788121424333347 Phases=2

New Load.load_p3ulv28553 conn=wye bus1=p3ulv28553.1.2 kV=0.2080002494301389 Vminpu=0.8 Vmaxpu=1.2 model=1 kW=7.06007 kvar=1.42991004799331 Phases=2

New Load.load_p3ulv28566 conn=wye bus1=p3ulv28566.1.2 kV=0.2080002494301389 Vminpu=0.8 Vmaxpu=1.2 model=1 kW=11.3701 kvar=2.3087972772746923 Phases=2

New Load.load_p3ulv28567 conn=wye bus1=p3ulv28567.1.2 kV=0.2080002494301389 Vminpu=0.8 Vmaxpu=1.2 model=1 kW=7.070070000000001 kvar=1.428223381875862 Phases=2
