New Line.l(r:p1udt213lv-p1ulv19154) Units=km Length=0.0167656 bus1=p1udt213lv.1.2 bus2=p1ulv19154.1.2 switch=n enabled=y phases=2 Linecode=1P_UG_AL_1/0_Brenau_0_416_0_2_2_2_2

New Line.l(r:p1udm705-p1ulv216) Units=km Length=0.0119213 bus1=p1udm705.1.2 bus2=p1ulv216.1.2 switch=n enabled=y phases=2 Linecode=1P_UG_AL_1/0_Brenau_0_416_0_2_2_2_2

New Line.l(r:p1udm707-p1ulv19151) Units=km Length=0.0160189 bus1=p1udm707.1.2 bus2=p1ulv19151.1.2 switch=n enabled=y phases=2 Linecode=1P_UG_AL_1/0_Brenau_0_416_0_2_2_2_2

New Line.l(r:p1udm707-p1ulv51347) Units=km Length=0.0124998 bus1=p1udm707.1.2 bus2=p1ulv51347.1.2 switch=n enabled=y phases=2 Linecode=1P_UG_AL_1/0_Brenau_0_416_0_2_2_2_2

New Line.l(r:p1udm705-p1udm707) Units=km Length=0.00943297 bus1=p1udm705.1.2 bus2=p1udm707.1.2 switch=n enabled=y phases=2 Linecode=1P_UG_AL_4/0_Sweetbriar_0_416_0_2_2_2_2

New Line.l(r:p1udm705-p1udt213lv) Units=km Length=0.00981642 bus1=p1udt213lv.1.2 bus2=p1udm705.1.2 switch=n enabled=y phases=2 Linecode=1P_UG_AL_4/0_Sweetbriar_0_416_0_2_2_2_2

New Line.l(r:p1udm706-p1ulv11538) Units=km Length=0.0161811 bus1=p1udm706.1.2 bus2=p1ulv11538.1.2 switch=n enabled=y phases=2 Linecode=1P_UG_AL_1/0_Brenau_0_416_0_2_2_2_2

New Line.l(r:p1udm709-p1ulv43884) Units=km Length=0.00929 bus1=p1udm709.1.2 bus2=p1ulv43884.1.2 switch=n enabled=y phases=2 Linecode=1P_UG_AL_1/0_Brenau_0_416_0_2_2_2_2

New Line.l(r:p1udm706-p1udm709) Units=km Length=0.00981642 bus1=p1udm706.1.2 bus2=p1udm709.1.2 switch=n enabled=y phases=2 Linecode=1P_UG_AL_1/0_Brenau_0_416_0_2_2_2_2

New Line.l(r:p1udm706-p1udt213lv) Units=km Length=0.00981759 bus1=p1udt213lv.1.2 bus2=p1udm706.1.2 switch=n enabled=y phases=2 Linecode=1P_UG_AL_4/0_Sweetbriar_0_416_0_2_2_2_2

New Line.l(r:p1udt216lv-p1ulv219) Units=km Length=0.0206915 bus1=p1udt216lv.1.2 bus2=p1ulv219.1.2 switch=n enabled=y phases=2 Linecode=1P_UG_AL_1/0_Brenau_0_416_0_2_2_2_2

New Line.l(r:p1udt216lv-p1ulv41340) Units=km Length=0.0224751 bus1=p1udt216lv.1.2 bus2=p1ulv41340.1.2 switch=n enabled=y phases=2 Linecode=1P_UG_AL_1/0_Brenau_0_416_0_2_2_2_2

New Line.l(r:p1udt216lv-p1ulv45797) Units=km Length=0.024685400000000003 bus1=p1udt216lv.1.2 bus2=p1ulv45797.1.2 switch=n enabled=y phases=2 Linecode=1P_UG_AL_1/0_Brenau_0_416_0_2_2_2_2

New Line.l(r:p1udm719-p1ulv31843) Units=km Length=0.0116455 bus1=p1udm719.1.2 bus2=p1ulv31843.1.2 switch=n enabled=y phases=2 Linecode=1P_UG_AL_1/0_Brenau_0_416_0_2_2_2_2

New Line.l(r:p1udm719-p1udt216lv) Units=km Length=0.0747651 bus1=p1udt216lv.1.2 bus2=p1udm719.1.2 switch=n enabled=y phases=2 Linecode=1P_UG_AL_1/0_Brenau_0_416_0_2_2_2_2

New Line.l(r:p1udt218lv-p1ulv221) Units=km Length=0.0168618 bus1=p1udt218lv.1.2 bus2=p1ulv221.1.2 switch=n enabled=y phases=2 Linecode=1P_UG_AL_1/0_Brenau_0_416_0_2_2_2_2

New Line.l(r:p1udm727-p1ulv1520) Units=km Length=0.014394 bus1=p1udm727.1.2 bus2=p1ulv1520.1.2 switch=n enabled=y phases=2 Linecode=1P_UG_AL_1/0_Brenau_0_416_0_2_2_2_2

New Line.l(r:p1udm727-p1udt218lv) Units=km Length=0.00829487 bus1=p1udt218lv.1.2 bus2=p1udm727.1.2 switch=n enabled=y phases=2 Linecode=1P_UG_AL_1/0_Brenau_0_416_0_2_2_2_2

New Line.l(r:p1udm729-p1ulv63134) Units=km Length=0.0164949 bus1=p1udm729.1.2 bus2=p1ulv63134.1.2 switch=n enabled=y phases=2 Linecode=1P_UG_AL_1/0_Brenau_0_416_0_2_2_2_2

New Line.l(r:p1udm728-p1ulv52672) Units=km Length=0.013115 bus1=p1udm728.1.2 bus2=p1ulv52672.1.2 switch=n enabled=y phases=2 Linecode=1P_UG_AL_1/0_Brenau_0_416_0_2_2_2_2

New Line.l(r:p1udm728-p1udm729) Units=km Length=0.00828218 bus1=p1udm729.1.2 bus2=p1udm728.1.2 switch=n enabled=y phases=2 Linecode=1P_UG_AL_1/0_Brenau_0_416_0_2_2_2_2

New Line.l(r:p1udm729-p1udt218lv) Units=km Length=0.00828541 bus1=p1udt218lv.1.2 bus2=p1udm729.1.2 switch=n enabled=y phases=2 Linecode=1P_UG_AL_4/0_Sweetbriar_0_416_0_2_2_2_2

New Line.l(r:p1udt219lv-p1ulv222) Units=km Length=0.0146215 bus1=p1udt219lv.1.2 bus2=p1ulv222.1.2 switch=n enabled=y phases=2 Linecode=1P_UG_AL_1/0_Brenau_0_416_0_2_2_2_2

New Line.l(r:p1udt219lv-p1ulv43880) Units=km Length=0.0131796 bus1=p1udt219lv.1.2 bus2=p1ulv43880.1.2 switch=n enabled=y phases=2 Linecode=1P_UG_AL_1/0_Brenau_0_416_0_2_2_2_2

New Line.l(r:p1udt219lv-p1ulv62498) Units=km Length=0.0160462 bus1=p1udt219lv.1.2 bus2=p1ulv62498.1.2 switch=n enabled=y phases=2 Linecode=1P_UG_AL_1/0_Brenau_0_416_0_2_2_2_2

New Line.l(r:p1udt220lv-p1ulv4641) Units=km Length=0.0117493 bus1=p1udt220lv.1.2 bus2=p1ulv4641.1.2 switch=n enabled=y phases=2 Linecode=1P_UG_AL_1/0_Brenau_0_416_0_2_2_2_2

New Line.l(r:p1udm733-p1ulv223) Units=km Length=0.0110375 bus1=p1udm733.1.2 bus2=p1ulv223.1.2 switch=n enabled=y phases=2 Linecode=1P_UG_AL_1/0_Brenau_0_416_0_2_2_2_2

New Line.l(r:p1udm735-p1ulv43231) Units=km Length=0.0154568 bus1=p1udm735.1.2 bus2=p1ulv43231.1.2 switch=n enabled=y phases=2 Linecode=1P_UG_AL_1/0_Brenau_0_416_0_2_2_2_2

New Line.l(r:p1udm733-p1udm735) Units=km Length=0.00962925 bus1=p1udm733.1.2 bus2=p1udm735.1.2 switch=n enabled=y phases=2 Linecode=1P_UG_AL_1/0_Brenau_0_416_0_2_2_2_2

New Line.l(r:p1udm733-p1udt220lv) Units=km Length=0.009202530000000002 bus1=p1udt220lv.1.2 bus2=p1udm733.1.2 switch=n enabled=y phases=2 Linecode=1P_UG_AL_4/0_Sweetbriar_0_416_0_2_2_2_2

New Line.l(r:p1udm736-p1ulv48265) Units=km Length=0.0159681 bus1=p1udm736.1.2 bus2=p1ulv48265.1.2 switch=n enabled=y phases=2 Linecode=1P_UG_AL_1/0_Brenau_0_416_0_2_2_2_2

New Line.l(r:p1udm736-p1ulv52659) Units=km Length=0.0139869 bus1=p1udm736.1.2 bus2=p1ulv52659.1.2 switch=n enabled=y phases=2 Linecode=1P_UG_AL_1/0_Brenau_0_416_0_2_2_2_2

New Line.l(r:p1udm736-p1udt220lv) Units=km Length=0.009212 bus1=p1udt220lv.1.2 bus2=p1udm736.1.2 switch=n enabled=y phases=2 Linecode=1P_UG_AL_4/0_Sweetbriar_0_416_0_2_2_2_2

New Line.l(r:p1udt221lv-p1ulv224) Units=km Length=0.0140347 bus1=p1udt221lv.1.2 bus2=p1ulv224.1.2 switch=n enabled=y phases=2 Linecode=1P_UG_AL_1/0_Brenau_0_416_0_2_2_2_2

New Line.l(r:p1udm740-p1ulv51355) Units=km Length=0.0161055 bus1=p1udm740.1.2 bus2=p1ulv51355.1.2 switch=n enabled=y phases=2 Linecode=1P_UG_AL_1/0_Brenau_0_416_0_2_2_2_2

New Line.l(r:p1udm740-p1ulv52658) Units=km Length=0.0164852 bus1=p1udm740.1.2 bus2=p1ulv52658.1.2 switch=n enabled=y phases=2 Linecode=1P_UG_AL_1/0_Brenau_0_416_0_2_2_2_2

New Line.l(r:p1udm740-p1udt221lv) Units=km Length=0.00878547 bus1=p1udt221lv.1.2 bus2=p1udm740.1.2 switch=n enabled=y phases=2 Linecode=1P_UG_AL_4/0_Sweetbriar_0_416_0_2_2_2_2

New Line.l(r:p1udm742-p1ulv62499) Units=km Length=0.0151043 bus1=p1udm742.1.2 bus2=p1ulv62499.1.2 switch=n enabled=y phases=2 Linecode=1P_UG_AL_1/0_Brenau_0_416_0_2_2_2_2

New Line.l(r:p1udm739-p1ulv25530) Units=km Length=0.0160449 bus1=p1udm739.1.2 bus2=p1ulv25530.1.2 switch=n enabled=y phases=2 Linecode=1P_UG_AL_1/0_Brenau_0_416_0_2_2_2_2

New Line.l(r:p1udm739-p1udm742) Units=km Length=0.00954359 bus1=p1udm742.1.2 bus2=p1udm739.1.2 switch=n enabled=y phases=2 Linecode=1P_UG_AL_1/0_Brenau_0_416_0_2_2_2_2

New Line.l(r:p1udm742-p1udt221lv) Units=km Length=0.00954254 bus1=p1udt221lv.1.2 bus2=p1udm742.1.2 switch=n enabled=y phases=2 Linecode=1P_UG_AL_4/0_Sweetbriar_0_416_0_2_2_2_2

New Line.l(r:p1udt222lv-p1ulv225) Units=km Length=0.0152755 bus1=p1udt222lv.1.2 bus2=p1ulv225.1.2 switch=n enabled=y phases=2 Linecode=1P_UG_AL_1/0_Brenau_0_416_0_2_2_2_2

New Line.l(r:p1udt222lv-p1ulv31835) Units=km Length=0.0126738 bus1=p1udt222lv.1.2 bus2=p1ulv31835.1.2 switch=n enabled=y phases=2 Linecode=1P_UG_AL_1/0_Brenau_0_416_0_2_2_2_2

New Line.l(r:p1udm744-p1ulv6579) Units=km Length=0.0147828 bus1=p1udm744.1.2 bus2=p1ulv6579.1.2 switch=n enabled=y phases=2 Linecode=1P_UG_AL_1/0_Brenau_0_416_0_2_2_2_2

New Line.l(r:p1udm746-p1ulv17837) Units=km Length=0.013277 bus1=p1udm746.1.2 bus2=p1ulv17837.1.2 switch=n enabled=y phases=2 Linecode=1P_UG_AL_1/0_Brenau_0_416_0_2_2_2_2

New Line.l(r:p1udm744-p1udm746) Units=km Length=0.00792228 bus1=p1udm744.1.2 bus2=p1udm746.1.2 switch=n enabled=y phases=2 Linecode=1P_UG_AL_1/0_Brenau_0_416_0_2_2_2_2

New Line.l(r:p1udm744-p1udt222lv) Units=km Length=0.0158548 bus1=p1udt222lv.1.2 bus2=p1udm744.1.2 switch=n enabled=y phases=2 Linecode=1P_UG_AL_4/0_Sweetbriar_0_416_0_2_2_2_2

New Line.l(r:p1udm748-p1ulv63135) Units=km Length=0.0148644 bus1=p1udm748.1.2 bus2=p1ulv63135.1.2 switch=n enabled=y phases=2 Linecode=1P_UG_AL_1/0_Brenau_0_416_0_2_2_2_2

New Line.l(r:p1udm745-p1ulv9692) Units=km Length=0.0138758 bus1=p1udm745.1.2 bus2=p1ulv9692.1.2 switch=n enabled=y phases=2 Linecode=1P_UG_AL_1/0_Brenau_0_416_0_2_2_2_2

New Line.l(r:p1udm745-p1udm748) Units=km Length=0.0165638 bus1=p1udm748.1.2 bus2=p1udm745.1.2 switch=n enabled=y phases=2 Linecode=1P_UG_AL_1/0_Brenau_0_416_0_2_2_2_2

New Line.l(r:p1udm748-p1udt222lv) Units=km Length=0.0151211 bus1=p1udt222lv.1.2 bus2=p1udm748.1.2 switch=n enabled=y phases=2 Linecode=1P_UG_AL_4/0_Sweetbriar_0_416_0_2_2_2_2

New Line.l(r:p1udt223lv-p1ulv226) Units=km Length=0.0144148 bus1=p1udt223lv.1.2 bus2=p1ulv226.1.2 switch=n enabled=y phases=2 Linecode=1P_UG_AL_1/0_Brenau_0_416_0_2_2_2_2

New Line.l(r:p1udt223lv-p1ulv15262) Units=km Length=0.0166263 bus1=p1udt223lv.1.2 bus2=p1ulv15262.1.2 switch=n enabled=y phases=2 Linecode=1P_UG_AL_1/0_Brenau_0_416_0_2_2_2_2

New Line.l(r:p1udm751-p1ulv38844) Units=km Length=0.0137612 bus1=p1udm751.1.2 bus2=p1ulv38844.1.2 switch=n enabled=y phases=2 Linecode=1P_UG_AL_1/0_Brenau_0_416_0_2_2_2_2

New Line.l(r:p1udm751-p1ulv63741) Units=km Length=0.013939 bus1=p1udm751.1.2 bus2=p1ulv63741.1.2 switch=n enabled=y phases=2 Linecode=1P_UG_AL_1/0_Brenau_0_416_0_2_2_2_2

New Line.l(r:p1udm751-p1udt223lv) Units=km Length=0.0196291 bus1=p1udt223lv.1.2 bus2=p1udm751.1.2 switch=n enabled=y phases=2 Linecode=1P_UG_AL_4/0_Sweetbriar_0_416_0_2_2_2_2

New Line.l(r:p1udm752-p1ulv47664) Units=km Length=0.0163295 bus1=p1udm752.1.2 bus2=p1ulv47664.1.2 switch=n enabled=y phases=2 Linecode=1P_UG_AL_1/0_Brenau_0_416_0_2_2_2_2

New Line.l(r:p1udm752-p1udt223lv) Units=km Length=0.0392447 bus1=p1udt223lv.1.2 bus2=p1udm752.1.2 switch=n enabled=y phases=2 Linecode=1P_UG_AL_1/0_Brenau_0_416_0_2_2_2_2

New Line.l(r:p1udt224lv-p1ulv848) Units=km Length=0.0152562 bus1=p1udt224lv.1.2 bus2=p1ulv848.1.2 switch=n enabled=y phases=2 Linecode=1P_UG_AL_1/0_Brenau_0_416_0_2_2_2_2

New Line.l(r:p1udm754-p1ulv227) Units=km Length=0.014962 bus1=p1udm754.1.2 bus2=p1ulv227.1.2 switch=n enabled=y phases=2 Linecode=1P_UG_AL_1/0_Brenau_0_416_0_2_2_2_2

New Line.l(r:p1udm756-p1ulv60606) Units=km Length=0.015325900000000002 bus1=p1udm756.1.2 bus2=p1ulv60606.1.2 switch=n enabled=y phases=2 Linecode=1P_UG_AL_1/0_Brenau_0_416_0_2_2_2_2

New Line.l(r:p1udm754-p1udm756) Units=km Length=0.00986074 bus1=p1udm754.1.2 bus2=p1udm756.1.2 switch=n enabled=y phases=2 Linecode=1P_UG_AL_1/0_Brenau_0_416_0_2_2_2_2

New Line.l(r:p1udm754-p1udt224lv) Units=km Length=0.00954703 bus1=p1udt224lv.1.2 bus2=p1udm754.1.2 switch=n enabled=y phases=2 Linecode=1P_UG_AL_4/0_Sweetbriar_0_416_0_2_2_2_2

New Line.l(r:p1udm757-p1ulv64394) Units=km Length=0.0121666 bus1=p1udm757.1.2 bus2=p1ulv64394.1.2 switch=n enabled=y phases=2 Linecode=1P_UG_AL_1/0_Brenau_0_416_0_2_2_2_2

New Line.l(r:p1udm757-p1udt224lv) Units=km Length=0.00953646 bus1=p1udt224lv.1.2 bus2=p1udm757.1.2 switch=n enabled=y phases=2 Linecode=1P_UG_AL_1/0_Brenau_0_416_0_2_2_2_2

New Line.l(r:p1udt225lv-p1ulv38189) Units=km Length=0.0141672 bus1=p1udt225lv.1.2 bus2=p1ulv38189.1.2 switch=n enabled=y phases=2 Linecode=1P_UG_AL_1/0_Brenau_0_416_0_2_2_2_2

New Line.l(r:p1udt225lv-p1ulv44522) Units=km Length=0.0127182 bus1=p1udt225lv.1.2 bus2=p1ulv44522.1.2 switch=n enabled=y phases=2 Linecode=1P_UG_AL_1/0_Brenau_0_416_0_2_2_2_2

New Line.l(r:p1udm758-p1ulv228) Units=km Length=0.013908 bus1=p1udm758.1.2 bus2=p1ulv228.1.2 switch=n enabled=y phases=2 Linecode=1P_UG_AL_2/0_Converse_0_416_0_2_2_2_2

New Line.l(r:p1udm758-p1udt225lv) Units=km Length=0.0197807 bus1=p1udt225lv.1.2 bus2=p1udm758.1.2 switch=n enabled=y phases=2 Linecode=1P_UG_AL_2/0_Converse_0_416_0_2_2_2_2

New Line.l(r:p1udm759-p1ulv15266) Units=km Length=0.014963100000000002 bus1=p1udm759.1.2 bus2=p1ulv15266.1.2 switch=n enabled=y phases=2 Linecode=1P_UG_AL_1/0_Brenau_0_416_0_2_2_2_2

New Line.l(r:p1udm762-p1ulv65036) Units=km Length=0.0125696 bus1=p1udm762.1.2 bus2=p1ulv65036.1.2 switch=n enabled=y phases=2 Linecode=1P_UG_AL_1/0_Brenau_0_416_0_2_2_2_2

New Line.l(r:p1udm759-p1udm762) Units=km Length=0.02393 bus1=p1udm759.1.2 bus2=p1udm762.1.2 switch=n enabled=y phases=2 Linecode=1P_UG_AL_1/0_Brenau_0_416_0_2_2_2_2

New Line.l(r:p1udm759-p1udt225lv) Units=km Length=0.00989063 bus1=p1udt225lv.1.2 bus2=p1udm759.1.2 switch=n enabled=y phases=2 Linecode=1P_UG_AL_4/0_Sweetbriar_0_416_0_2_2_2_2

New Line.l(r:p1udt226lv-p1ulv1506) Units=km Length=0.0151432 bus1=p1udt226lv.1.2 bus2=p1ulv1506.1.2 switch=n enabled=y phases=2 Linecode=1P_UG_AL_1/0_Brenau_0_416_0_2_2_2_2

New Line.l(r:p1udm765-p1ulv12197) Units=km Length=0.0132557 bus1=p1udm765.1.2 bus2=p1ulv12197.1.2 switch=n enabled=y phases=2 Linecode=1P_UG_AL_1/0_Brenau_0_416_0_2_2_2_2

New Line.l(r:p1udm768-p1ulv54538) Units=km Length=0.015226400000000001 bus1=p1udm768.1.2 bus2=p1ulv54538.1.2 switch=n enabled=y phases=2 Linecode=1P_UG_AL_1/0_Brenau_0_416_0_2_2_2_2

New Line.l(r:p1udm765-p1udm768) Units=km Length=0.00836875 bus1=p1udm765.1.2 bus2=p1udm768.1.2 switch=n enabled=y phases=2 Linecode=1P_UG_AL_1/0_Brenau_0_416_0_2_2_2_2

New Line.l(r:p1udm765-p1udt226lv) Units=km Length=0.0167367 bus1=p1udt226lv.1.2 bus2=p1udm765.1.2 switch=n enabled=y phases=2 Linecode=1P_UG_AL_4/0_Sweetbriar_0_416_0_2_2_2_2

New Line.l(r:p1udm766-p1ulv17841) Units=km Length=0.0175039 bus1=p1udm766.1.2 bus2=p1ulv17841.1.2 switch=n enabled=y phases=2 Linecode=1P_UG_AL_1/0_Brenau_0_416_0_2_2_2_2

New Line.l(r:p1udm766-p1ulv44523) Units=km Length=0.0147359 bus1=p1udm766.1.2 bus2=p1ulv44523.1.2 switch=n enabled=y phases=2 Linecode=1P_UG_AL_1/0_Brenau_0_416_0_2_2_2_2

New Line.l(r:p1udm763-p1ulv229) Units=km Length=0.0179284 bus1=p1udm763.1.2 bus2=p1ulv229.1.2 switch=n enabled=y phases=2 Linecode=1P_UG_AL_1/0_Brenau_0_416_0_2_2_2_2

New Line.l(r:p1udm763-p1udm766) Units=km Length=0.0130169 bus1=p1udm766.1.2 bus2=p1udm763.1.2 switch=n enabled=y phases=2 Linecode=1P_UG_AL_1/0_Brenau_0_416_0_2_2_2_2

New Line.l(r:p1udm766-p1udt226lv) Units=km Length=0.00837273 bus1=p1udt226lv.1.2 bus2=p1udm766.1.2 switch=n enabled=y phases=2 Linecode=1P_UG_AL_4/0_Sweetbriar_0_416_0_2_2_2_2

New Line.l(r:p1udt227lv-p1ulv230) Units=km Length=0.0148986 bus1=p1udt227lv.1.2 bus2=p1ulv230.1.2 switch=n enabled=y phases=2 Linecode=1P_UG_AL_1/0_Brenau_0_416_0_2_2_2_2

New Line.l(r:p1udm770-p1ulv38191) Units=km Length=0.0134068 bus1=p1udm770.1.2 bus2=p1ulv38191.1.2 switch=n enabled=y phases=2 Linecode=1P_UG_AL_1/0_Brenau_0_416_0_2_2_2_2

New Line.l(r:p1udm770-p1ulv58177) Units=km Length=0.014624000000000002 bus1=p1udm770.1.2 bus2=p1ulv58177.1.2 switch=n enabled=y phases=2 Linecode=1P_UG_AL_1/0_Brenau_0_416_0_2_2_2_2

New Line.l(r:p1udm770-p1udt227lv) Units=km Length=0.0097279 bus1=p1udt227lv.1.2 bus2=p1udm770.1.2 switch=n enabled=y phases=2 Linecode=1P_UG_AL_4/0_Sweetbriar_0_416_0_2_2_2_2

New Line.l(r:p1udm771-p1ulv40742) Units=km Length=0.014045 bus1=p1udm771.1.2 bus2=p1ulv40742.1.2 switch=n enabled=y phases=2 Linecode=1P_UG_AL_4/0_Sweetbriar_0_416_0_2_2_2_2

New Line.l(r:p1udm771-p1udt227lv) Units=km Length=0.009723140000000002 bus1=p1udt227lv.1.2 bus2=p1udm771.1.2 switch=n enabled=y phases=2 Linecode=1P_UG_AL_4/0_Sweetbriar_0_416_0_2_2_2_2

New Line.l(r:p1udt233lv-p1ulv1517) Units=km Length=0.0140554 bus1=p1udt233lv.1.2 bus2=p1ulv1517.1.2 switch=n enabled=y phases=2 Linecode=1P_UG_AL_1/0_Brenau_0_416_0_2_2_2_2

New Line.l(r:p1udm796-p1ulv236) Units=km Length=0.0133695 bus1=p1udm796.1.2 bus2=p1ulv236.1.2 switch=n enabled=y phases=2 Linecode=1P_UG_AL_1/0_Brenau_0_416_0_2_2_2_2

New Line.l(r:p1udm800-p1ulv39494) Units=km Length=0.0130364 bus1=p1udm800.1.2 bus2=p1ulv39494.1.2 switch=n enabled=y phases=2 Linecode=1P_UG_AL_1/0_Brenau_0_416_0_2_2_2_2

New Line.l(r:p1udm796-p1udm800) Units=km Length=0.00983013 bus1=p1udm796.1.2 bus2=p1udm800.1.2 switch=n enabled=y phases=2 Linecode=1P_UG_AL_1/0_Brenau_0_416_0_2_2_2_2

New Line.l(r:p1udm796-p1udt233lv) Units=km Length=0.00982133 bus1=p1udt233lv.1.2 bus2=p1udm796.1.2 switch=n enabled=y phases=2 Linecode=1P_UG_AL_4/0_Sweetbriar_0_416_0_2_2_2_2

New Line.l(r:p1udm798-p1ulv9072) Units=km Length=0.0121524 bus1=p1udm798.1.2 bus2=p1ulv9072.1.2 switch=n enabled=y phases=2 Linecode=1P_UG_AL_4/0_Sweetbriar_0_416_0_2_2_2_2

New Line.l(r:p1udm798-p1ulv33815) Units=km Length=0.0147929 bus1=p1udm798.1.2 bus2=p1ulv33815.1.2 switch=n enabled=y phases=2 Linecode=1P_UG_AL_1/0_Brenau_0_416_0_2_2_2_2

New Line.l(r:p1udm798-p1udt233lv) Units=km Length=0.00981658 bus1=p1udt233lv.1.2 bus2=p1udm798.1.2 switch=n enabled=y phases=2 Linecode=1P_UG_AL_4/0_Sweetbriar_0_416_0_2_2_2_2

New Line.l(r:p1udt234lv-p1ulv237) Units=km Length=0.0113146 bus1=p1udt234lv.1.2 bus2=p1ulv237.1.2 switch=n enabled=y phases=2 Linecode=1P_UG_AL_4/0_Sweetbriar_0_416_0_2_2_2_2

New Line.l(r:p1udt234lv-p1ulv55178) Units=km Length=0.0157135 bus1=p1udt234lv.1.2 bus2=p1ulv55178.1.2 switch=n enabled=y phases=2 Linecode=1P_UG_AL_1/0_Brenau_0_416_0_2_2_2_2

New Line.l(r:p1udm802-p1ulv35077) Units=km Length=0.0169824 bus1=p1udm802.1.2 bus2=p1ulv35077.1.2 switch=n enabled=y phases=2 Linecode=1P_UG_AL_1/0_Brenau_0_416_0_2_2_2_2

New Line.l(r:p1udm802-p1udt234lv) Units=km Length=0.00998852 bus1=p1udt234lv.1.2 bus2=p1udm802.1.2 switch=n enabled=y phases=2 Linecode=1P_UG_AL_1/0_Brenau_0_416_0_2_2_2_2

New Line.l(r:p1udt810lv-p1ulv4610) Units=km Length=0.0127276 bus1=p1udt810lv.1.2 bus2=p1ulv4610.1.2 switch=n enabled=y phases=2 Linecode=1P_UG_AL_1/0_Brenau_0_416_0_2_2_2_2

New Line.l(r:p1udm2944-p1ulv820) Units=km Length=0.0166216 bus1=p1udm2944.1.2 bus2=p1ulv820.1.2 switch=n enabled=y phases=2 Linecode=1P_UG_AL_4/0_Sweetbriar_0_416_0_2_2_2_2

New Line.l(r:p1udm2944-p1ulv33125) Units=km Length=0.0139902 bus1=p1udm2944.1.2 bus2=p1ulv33125.1.2 switch=n enabled=y phases=2 Linecode=1P_UG_AL_1/0_Brenau_0_416_0_2_2_2_2

New Line.l(r:p1udm2944-p1udt810lv) Units=km Length=0.009677750000000002 bus1=p1udt810lv.1.2 bus2=p1udm2944.1.2 switch=n enabled=y phases=2 Linecode=1P_UG_AL_4/0_Sweetbriar_0_416_0_2_2_2_2

New Line.l(r:p1udm2946-p1ulv12160) Units=km Length=0.0122479 bus1=p1udm2946.1.2 bus2=p1ulv12160.1.2 switch=n enabled=y phases=2 Linecode=1P_UG_AL_1/0_Brenau_0_416_0_2_2_2_2

New Line.l(r:p1udm2946-p1ulv27414) Units=km Length=0.0180355 bus1=p1udm2946.1.2 bus2=p1ulv27414.1.2 switch=n enabled=y phases=2 Linecode=1P_UG_AL_1/0_Brenau_0_416_0_2_2_2_2

New Line.l(r:p1udm2946-p1udt810lv) Units=km Length=0.009682280000000001 bus1=p1udt810lv.1.2 bus2=p1udm2946.1.2 switch=n enabled=y phases=2 Linecode=1P_UG_AL_4/0_Sweetbriar_0_416_0_2_2_2_2

New Line.l(r:p1udt832lv-p1ulv842) Units=km Length=0.0230578 bus1=p1udt832lv.1.2 bus2=p1ulv842.1.2 switch=n enabled=y phases=2 Linecode=1P_UG_AL_1/0_Brenau_0_416_0_2_2_2_2

New Line.l(r:p1udt832lv-p1ulv33161) Units=km Length=0.024888100000000003 bus1=p1udt832lv.1.2 bus2=p1ulv33161.1.2 switch=n enabled=y phases=2 Linecode=1P_UG_AL_1/0_Brenau_0_416_0_2_2_2_2

New Line.l(r:p1udt832lv-p1ulv54525) Units=km Length=0.0252119 bus1=p1udt832lv.1.2 bus2=p1ulv54525.1.2 switch=n enabled=y phases=2 Linecode=1P_UG_AL_1/0_Brenau_0_416_0_2_2_2_2

New Line.l(r:p1udt832lv-p1ulv56379) Units=km Length=0.023958 bus1=p1udt832lv.1.2 bus2=p1ulv56379.1.2 switch=n enabled=y phases=2 Linecode=1P_UG_AL_1/0_Brenau_0_416_0_2_2_2_2

New Line.l(r:p1udm3026-p1ulv4637) Units=km Length=0.0218644 bus1=p1udm3026.1.2 bus2=p1ulv4637.1.2 switch=n enabled=y phases=2 Linecode=1P_UG_AL_1/0_Brenau_0_416_0_2_2_2_2

New Line.l(r:p1udm3026-p1ulv9688) Units=km Length=0.0199251 bus1=p1udm3026.1.2 bus2=p1ulv9688.1.2 switch=n enabled=y phases=2 Linecode=1P_UG_AL_1/0_Brenau_0_416_0_2_2_2_2

New Line.l(r:p1udm3026-p1udt832lv) Units=km Length=0.0170753 bus1=p1udt832lv.1.2 bus2=p1udm3026.1.2 switch=n enabled=y phases=2 Linecode=1P_UG_AL_4/0_Sweetbriar_0_416_0_2_2_2_2

New Line.l(r:p1udt834lv-p1ulv7828) Units=km Length=0.0132535 bus1=p1udt834lv.1.2 bus2=p1ulv7828.1.2 switch=n enabled=y phases=2 Linecode=1P_UG_AL_1/0_Brenau_0_416_0_2_2_2_2

New Line.l(r:p1udt834lv-p1ulv63748) Units=km Length=0.0140621 bus1=p1udt834lv.1.2 bus2=p1ulv63748.1.2 switch=n enabled=y phases=2 Linecode=1P_UG_AL_1/0_Brenau_0_416_0_2_2_2_2

New Line.l(r:p1udm3036-p1ulv845) Units=km Length=0.0136687 bus1=p1udm3036.1.2 bus2=p1ulv845.1.2 switch=n enabled=y phases=2 Linecode=1P_UG_AL_1/0_Brenau_0_416_0_2_2_2_2

New Line.l(r:p1udm3040-p1ulv61848) Units=km Length=0.0134336 bus1=p1udm3040.1.2 bus2=p1ulv61848.1.2 switch=n enabled=y phases=2 Linecode=1P_UG_AL_1/0_Brenau_0_416_0_2_2_2_2

New Line.l(r:p1udm3036-p1udm3040) Units=km Length=0.00680247 bus1=p1udm3036.1.2 bus2=p1udm3040.1.2 switch=n enabled=y phases=2 Linecode=1P_UG_AL_1/0_Brenau_0_416_0_2_2_2_2

New Line.l(r:p1udm3036-p1udt834lv) Units=km Length=0.0132341 bus1=p1udt834lv.1.2 bus2=p1udm3036.1.2 switch=n enabled=y phases=2 Linecode=1P_UG_AL_4/0_Sweetbriar_0_416_0_2_2_2_2

New Line.l(r:p1udm3039-p1ulv24890) Units=km Length=0.012362100000000003 bus1=p1udm3039.1.2 bus2=p1ulv24890.1.2 switch=n enabled=y phases=2 Linecode=1P_UG_AL_1/0_Brenau_0_416_0_2_2_2_2

New Line.l(r:p1udm3037-p1ulv2158) Units=km Length=0.014927 bus1=p1udm3037.1.2 bus2=p1ulv2158.1.2 switch=n enabled=y phases=2 Linecode=1P_UG_AL_1/0_Brenau_0_416_0_2_2_2_2

New Line.l(r:p1udm3037-p1udm3039) Units=km Length=0.0087726 bus1=p1udm3039.1.2 bus2=p1udm3037.1.2 switch=n enabled=y phases=2 Linecode=1P_UG_AL_1/0_Brenau_0_416_0_2_2_2_2

New Line.l(r:p1udm3039-p1udt834lv) Units=km Length=0.0175452 bus1=p1udt834lv.1.2 bus2=p1udm3039.1.2 switch=n enabled=y phases=2 Linecode=1P_UG_AL_4/0_Sweetbriar_0_416_0_2_2_2_2

New Line.l(r:p1udt835lv-p1ulv846) Units=km Length=0.0252867 bus1=p1udt835lv.1.2 bus2=p1ulv846.1.2 switch=n enabled=y phases=2 Linecode=1P_UG_AL_1/0_Brenau_0_416_0_2_2_2_2

New Line.l(r:p1udt835lv-p1ulv29949) Units=km Length=0.021981100000000003 bus1=p1udt835lv.1.2 bus2=p1ulv29949.1.2 switch=n enabled=y phases=2 Linecode=1P_UG_AL_1/0_Brenau_0_416_0_2_2_2_2

New Line.l(r:p1udt835lv-p1ulv39484) Units=km Length=0.0257154 bus1=p1udt835lv.1.2 bus2=p1ulv39484.1.2 switch=n enabled=y phases=2 Linecode=1P_UG_AL_1/0_Brenau_0_416_0_2_2_2_2

New Line.l(r:p1udt835lv-p1ulv54531) Units=km Length=0.023454000000000003 bus1=p1udt835lv.1.2 bus2=p1ulv54531.1.2 switch=n enabled=y phases=2 Linecode=1P_UG_AL_1/0_Brenau_0_416_0_2_2_2_2

New Line.l(r:p1udm3043-p1ulv7829) Units=km Length=0.023464400000000003 bus1=p1udm3043.1.2 bus2=p1ulv7829.1.2 switch=n enabled=y phases=2 Linecode=1P_UG_AL_1/0_Brenau_0_416_0_2_2_2_2

New Line.l(r:p1udm3043-p1ulv65031) Units=km Length=0.0204511 bus1=p1udm3043.1.2 bus2=p1ulv65031.1.2 switch=n enabled=y phases=2 Linecode=1P_UG_AL_1/0_Brenau_0_416_0_2_2_2_2

New Line.l(r:p1udm3043-p1udt835lv) Units=km Length=0.00970008 bus1=p1udt835lv.1.2 bus2=p1udm3043.1.2 switch=n enabled=y phases=2 Linecode=1P_UG_AL_4/0_Sweetbriar_0_416_0_2_2_2_2

New Line.l(r:p1udt836lv-p1ulv41343) Units=km Length=0.0162836 bus1=p1udt836lv.1.2 bus2=p1ulv41343.1.2 switch=n enabled=y phases=2 Linecode=1P_UG_AL_1/0_Brenau_0_416_0_2_2_2_2

New Line.l(r:p1udm3048-p1ulv847) Units=km Length=0.014873 bus1=p1udm3048.1.2 bus2=p1ulv847.1.2 switch=n enabled=y phases=2 Linecode=1P_UG_AL_1/0_Brenau_0_416_0_2_2_2_2

New Line.l(r:p1udm3048-p1ulv5921) Units=km Length=0.0156521 bus1=p1udm3048.1.2 bus2=p1ulv5921.1.2 switch=n enabled=y phases=2 Linecode=1P_UG_AL_4/0_Sweetbriar_0_416_0_2_2_2_2

New Line.l(r:p1udm3048-p1udt836lv) Units=km Length=0.00954359 bus1=p1udt836lv.1.2 bus2=p1udm3048.1.2 switch=n enabled=y phases=2 Linecode=1P_UG_AL_4/0_Sweetbriar_0_416_0_2_2_2_2

New Line.l(r:p1udm3050-p1ulv26796) Units=km Length=0.0146824 bus1=p1udm3050.1.2 bus2=p1ulv26796.1.2 switch=n enabled=y phases=2 Linecode=1P_UG_AL_1/0_Brenau_0_416_0_2_2_2_2

New Line.l(r:p1udm3050-p1udt836lv) Units=km Length=0.00954359 bus1=p1udt836lv.1.2 bus2=p1udm3050.1.2 switch=n enabled=y phases=2 Linecode=1P_UG_AL_1/0_Brenau_0_416_0_2_2_2_2

New Line.l(r:p1udt837lv-p1ulv849) Units=km Length=0.0114008 bus1=p1udt837lv.1.2 bus2=p1ulv849.1.2 switch=n enabled=y phases=2 Linecode=1P_OH_AL_2/0_Rucina_0_416_0_2_2_2_2

New Line.l(r:p1udm3053-p1ulv850) Units=km Length=0.0136878 bus1=p1udm3053.1.2 bus2=p1ulv850.1.2 switch=n enabled=y phases=2 Linecode=1P_UG_AL_1/0_Brenau_0_416_0_2_2_2_2

New Line.l(r:p1udm3054-p1ulv31838) Units=km Length=0.0133776 bus1=p1udm3054.1.2 bus2=p1ulv31838.1.2 switch=n enabled=y phases=2 Linecode=1P_UG_AL_1/0_Brenau_0_416_0_2_2_2_2

New Line.l(r:p1udm3053-p1udm3054) Units=km Length=0.0111073 bus1=p1udm3053.1.2 bus2=p1udm3054.1.2 switch=n enabled=y phases=2 Linecode=1P_UG_AL_1/0_Brenau_0_416_0_2_2_2_2

New Line.l(r:p1udm3053-p1udt838lv) Units=km Length=0.00988433 bus1=p1udt838lv.1.2 bus2=p1udm3053.1.2 switch=n enabled=y phases=2 Linecode=1P_UG_AL_4/0_Sweetbriar_0_416_0_2_2_2_2

New Line.l(r:p1udm3055-p1ulv40110) Units=km Length=0.0116006 bus1=p1udm3055.1.2 bus2=p1ulv40110.1.2 switch=n enabled=y phases=2 Linecode=1P_UG_AL_1/0_Brenau_0_416_0_2_2_2_2

New Line.l(r:p1udm3055-p1udt838lv) Units=km Length=0.0147707 bus1=p1udt838lv.1.2 bus2=p1udm3055.1.2 switch=n enabled=y phases=2 Linecode=1P_UG_AL_1/0_Brenau_0_416_0_2_2_2_2

New Line.l(r:p1udt839lv-p1ulv53936) Units=km Length=0.0143257 bus1=p1udt839lv.1.2 bus2=p1ulv53936.1.2 switch=n enabled=y phases=2 Linecode=1P_UG_AL_1/0_Brenau_0_416_0_2_2_2_2

New Line.l(r:p1udm3056-p1ulv851) Units=km Length=0.0216934 bus1=p1udm3056.1.2 bus2=p1ulv851.1.2 switch=n enabled=y phases=2 Linecode=1P_UG_AL_1/0_Brenau_0_416_0_2_2_2_2

New Line.l(r:p1udm3056-p1udt839lv) Units=km Length=0.020876 bus1=p1udt839lv.1.2 bus2=p1udm3056.1.2 switch=n enabled=y phases=2 Linecode=1P_UG_AL_1/0_Brenau_0_416_0_2_2_2_2

New Line.l(r:p1udm3058-p1ulv43238) Units=km Length=0.0130993 bus1=p1udm3058.1.2 bus2=p1ulv43238.1.2 switch=n enabled=y phases=2 Linecode=1P_UG_AL_1/0_Brenau_0_416_0_2_2_2_2

New Line.l(r:p1udm3057-p1ulv21100) Units=km Length=0.0115021 bus1=p1udm3057.1.2 bus2=p1ulv21100.1.2 switch=n enabled=y phases=2 Linecode=1P_UG_AL_1/0_Brenau_0_416_0_2_2_2_2

New Line.l(r:p1udm3057-p1udm3058) Units=km Length=0.0170288 bus1=p1udm3058.1.2 bus2=p1udm3057.1.2 switch=n enabled=y phases=2 Linecode=1P_UG_AL_1/0_Brenau_0_416_0_2_2_2_2

New Line.l(r:p1udm3058-p1udt839lv) Units=km Length=0.00850763 bus1=p1udt839lv.1.2 bus2=p1udm3058.1.2 switch=n enabled=y phases=2 Linecode=1P_UG_AL_4/0_Sweetbriar_0_416_0_2_2_2_2

New Line.l(r:p1udt840lv-p1ulv852) Units=km Length=0.0174502 bus1=p1udt840lv.1.2 bus2=p1ulv852.1.2 switch=n enabled=y phases=2 Linecode=1P_UG_AL_1/0_Brenau_0_416_0_2_2_2_2

New Line.l(r:p1udt840lv-p1ulv2149) Units=km Length=0.017706 bus1=p1udt840lv.1.2 bus2=p1ulv2149.1.2 switch=n enabled=y phases=2 Linecode=1P_UG_AL_1/0_Brenau_0_416_0_2_2_2_2

New Line.l(r:p1udm3062-p1ulv43888) Units=km Length=0.0169655 bus1=p1udm3062.1.2 bus2=p1ulv43888.1.2 switch=n enabled=y phases=2 Linecode=1P_UG_AL_1/0_Brenau_0_416_0_2_2_2_2

New Line.l(r:p1udm3062-p1udt840lv) Units=km Length=0.00987474 bus1=p1udt840lv.1.2 bus2=p1udm3062.1.2 switch=n enabled=y phases=2 Linecode=1P_UG_AL_1/0_Brenau_0_416_0_2_2_2_2

New Line.l(r:p1udm3094-p1ulv861) Units=km Length=0.013431000000000002 bus1=p1udm3094.1.2 bus2=p1ulv861.1.2 switch=n enabled=y phases=2 Linecode=1P_UG_AL_1/0_Brenau_0_416_0_2_2_2_2

New Line.l(r:p1udm3094-p1ulv31200) Units=km Length=0.0172762 bus1=p1udm3094.1.2 bus2=p1ulv31200.1.2 switch=n enabled=y phases=2 Linecode=1P_UG_AL_1/0_Brenau_0_416_0_2_2_2_2

New Line.l(r:p1udm3094-p1udt849lv) Units=km Length=0.00995475 bus1=p1udt849lv.1.2 bus2=p1udm3094.1.2 switch=n enabled=y phases=2 Linecode=1P_UG_AL_4/0_Sweetbriar_0_416_0_2_2_2_2

New Line.l(r:p1udm3096-p1ulv35738) Units=km Length=0.0193124 bus1=p1udm3096.1.2 bus2=p1ulv35738.1.2 switch=n enabled=y phases=2 Linecode=1P_UG_AL_1/0_Brenau_0_416_0_2_2_2_2

New Line.l(r:p1udm3096-p1ulv47061) Units=km Length=0.0144446 bus1=p1udm3096.1.2 bus2=p1ulv47061.1.2 switch=n enabled=y phases=2 Linecode=1P_UG_AL_1/0_Brenau_0_416_0_2_2_2_2

New Line.l(r:p1udm3098-p1ulv56985) Units=km Length=0.0175006 bus1=p1udm3098.1.2 bus2=p1ulv56985.1.2 switch=n enabled=y phases=2 Linecode=1P_UG_AL_1/0_Brenau_0_416_0_2_2_2_2

New Line.l(r:p1udm3096-p1udm3098) Units=km Length=0.00995475 bus1=p1udm3096.1.2 bus2=p1udm3098.1.2 switch=n enabled=y phases=2 Linecode=1P_UG_AL_1/0_Brenau_0_416_0_2_2_2_2

New Line.l(r:p1udm3096-p1udt849lv) Units=km Length=0.00995475 bus1=p1udt849lv.1.2 bus2=p1udm3096.1.2 switch=n enabled=y phases=2 Linecode=1P_UG_AL_4/0_Sweetbriar_0_416_0_2_2_2_2

New Line.l(r:p1udt850lv-p1ulv46477) Units=km Length=0.0169232 bus1=p1udt850lv.1.2 bus2=p1ulv46477.1.2 switch=n enabled=y phases=2 Linecode=1P_UG_AL_1/0_Brenau_0_416_0_2_2_2_2

New Line.l(r:p1udm3100-p1ulv863) Units=km Length=0.0156941 bus1=p1udm3100.1.2 bus2=p1ulv863.1.2 switch=n enabled=y phases=2 Linecode=1P_UG_AL_1/0_Brenau_0_416_0_2_2_2_2

New Line.l(r:p1udm3100-p1udt850lv) Units=km Length=0.0199095 bus1=p1udt850lv.1.2 bus2=p1udm3100.1.2 switch=n enabled=y phases=2 Linecode=1P_UG_AL_1/0_Brenau_0_416_0_2_2_2_2

New Line.l(r:p1udm3101-p1ulv21112) Units=km Length=0.0150961 bus1=p1udm3101.1.2 bus2=p1ulv21112.1.2 switch=n enabled=y phases=2 Linecode=1P_UG_AL_1/0_Brenau_0_416_0_2_2_2_2

New Line.l(r:p1udm3101-p1ulv52671) Units=km Length=0.016481700000000002 bus1=p1udm3101.1.2 bus2=p1ulv52671.1.2 switch=n enabled=y phases=2 Linecode=1P_UG_AL_1/0_Brenau_0_416_0_2_2_2_2

New Line.l(r:p1udm3099-p1ulv862) Units=km Length=0.0143463 bus1=p1udm3099.1.2 bus2=p1ulv862.1.2 switch=n enabled=y phases=2 Linecode=1P_UG_AL_1/0_Brenau_0_416_0_2_2_2_2

New Line.l(r:p1udm3099-p1udm3101) Units=km Length=0.00995475 bus1=p1udm3101.1.2 bus2=p1udm3099.1.2 switch=n enabled=y phases=2 Linecode=1P_UG_AL_1/0_Brenau_0_416_0_2_2_2_2

New Line.l(r:p1udm3101-p1udt850lv) Units=km Length=0.00995475 bus1=p1udt850lv.1.2 bus2=p1udm3101.1.2 switch=n enabled=y phases=2 Linecode=1P_UG_AL_4/0_Sweetbriar_0_416_0_2_2_2_2
