New Line.l(r:p3udt504lv-p3ulv78907) Units=km Length=0.0160872 bus1=p3udt504lv.1.2 bus2=p3ulv78907.1.2 switch=n enabled=y phases=2 Linecode=1P_UG_AL_2/0_Converse_0_416_0_2_2_2_2

New Line.l(r:p3udm1682-p3ulv652) Units=km Length=0.0154081 bus1=p3udm1682.1.2 bus2=p3ulv652.1.2 switch=n enabled=y phases=2 Linecode=1P_UG_AL_1/0_Brenau_0_416_0_2_2_2_2

New Line.l(r:p3udm1682-p3udt504lv) Units=km Length=0.026831700000000003 bus1=p3udt504lv.1.2 bus2=p3udm1682.1.2 switch=n enabled=y phases=2 Linecode=1P_UG_AL_1/0_Brenau_0_416_0_2_2_2_2

New Line.l(r:p3udm1683-p3ulv59675) Units=km Length=0.0156839 bus1=p3udm1683.1.2 bus2=p3ulv59675.1.2 switch=n enabled=y phases=2 Linecode=1P_UG_AL_4/0_Sweetbriar_0_416_0_2_2_2_2

New Line.l(r:p3udm1683-p3udt504lv) Units=km Length=0.0187393 bus1=p3udt504lv.1.2 bus2=p3udm1683.1.2 switch=n enabled=y phases=2 Linecode=1P_UG_AL_4/0_Sweetbriar_0_416_0_2_2_2_2

New Line.l(r:p3udt512lv-p3ulv660) Units=km Length=0.0576755 bus1=p3udt512lv.1.2 bus2=p3ulv660.1.2 switch=n enabled=y phases=2 Linecode=1P_OH_AL_4/0_Zuzara_0_416_0_2_2_2_2

New Line.l(r:p3udt513lv-p3ulv661) Units=km Length=0.0134205 bus1=p3udt513lv.1.2 bus2=p3ulv661.1.2 switch=n enabled=y phases=2 Linecode=1P_UG_AL_4/0_Sweetbriar_0_416_0_2_2_2_2

New Line.l(r:p3udm1706-p3ulv20976) Units=km Length=0.0162484 bus1=p3udm1706.1.2 bus2=p3ulv20976.1.2 switch=n enabled=y phases=2 Linecode=1P_OH_AL_2/0_Rucina_0_416_0_2_2_2_2

New Line.l(r:p3udm1706-p3udt513lv) Units=km Length=0.107494 bus1=p3udt513lv.1.2 bus2=p3udm1706.1.2 switch=n enabled=y phases=2 Linecode=1P_OH_AL_4/0_Zuzara_0_416_0_2_2_2_2

New Line.l(r:p3udm1709-p3ulv48993) Units=km Length=0.0184616 bus1=p3udm1709.1.2 bus2=p3ulv48993.1.2 switch=n enabled=y phases=2 Linecode=1P_UG_AL_1/0_Brenau_0_416_0_2_2_2_2

New Line.l(r:p3udm1707-p3ulv31951) Units=km Length=0.0130049 bus1=p3udm1707.1.2 bus2=p3ulv31951.1.2 switch=n enabled=y phases=2 Linecode=1P_UG_AL_1/0_Brenau_0_416_0_2_2_2_2

New Line.l(r:p3udm1707-p3ulv44388) Units=km Length=0.0183242 bus1=p3udm1707.1.2 bus2=p3ulv44388.1.2 switch=n enabled=y phases=2 Linecode=1P_UG_AL_1/0_Brenau_0_416_0_2_2_2_2

New Line.l(r:p3udm1707-p3udm1709) Units=km Length=0.00973781 bus1=p3udm1709.1.2 bus2=p3udm1707.1.2 switch=n enabled=y phases=2 Linecode=1P_UG_AL_4/0_Sweetbriar_0_416_0_2_2_2_2

New Line.l(r:p3udm1709-p3udt513lv) Units=km Length=0.00974821 bus1=p3udt513lv.1.2 bus2=p3udm1709.1.2 switch=n enabled=y phases=2 Linecode=1P_UG_AL_4/0_Sweetbriar_0_416_0_2_2_2_2

New Line.l(r:p3udm1710-p3ulv662) Units=km Length=0.0296138 bus1=p3udm1710.1.2 bus2=p3ulv662.1.2 switch=n enabled=y phases=2 Linecode=1P_UG_AL_1/0_Brenau_0_416_0_2_2_2_2

New Line.l(r:p3udm1710-p3udt514lv) Units=km Length=0.00999265 bus1=p3udt514lv.1.2 bus2=p3udm1710.1.2 switch=n enabled=y phases=2 Linecode=1P_UG_AL_1/0_Brenau_0_416_0_2_2_2_2

New Line.l(r:p3udm1711-p3ulv64266) Units=km Length=0.029327600000000002 bus1=p3udm1711.1.2 bus2=p3ulv64266.1.2 switch=n enabled=y phases=2 Linecode=1P_UG_AL_1/0_Brenau_0_416_0_2_2_2_2

New Line.l(r:p3udm1711-p3udt514lv) Units=km Length=0.0199858 bus1=p3udt514lv.1.2 bus2=p3udm1711.1.2 switch=n enabled=y phases=2 Linecode=1P_UG_AL_1/0_Brenau_0_416_0_2_2_2_2

New Line.l(r:p3udm1716-p3ulv664) Units=km Length=0.0146895 bus1=p3udm1716.1.2 bus2=p3ulv664.1.2 switch=n enabled=y phases=2 Linecode=1P_UG_AL_1/0_Brenau_0_416_0_2_2_2_2

New Line.l(r:p3udm1716-p3ulv75045) Units=km Length=0.0176206 bus1=p3udm1716.1.2 bus2=p3ulv75045.1.2 switch=n enabled=y phases=2 Linecode=1P_UG_AL_1/0_Brenau_0_416_0_2_2_2_2

New Line.l(r:p3udm1716-p3udt516lv) Units=km Length=0.009692060000000002 bus1=p3udt516lv.1.2 bus2=p3udm1716.1.2 switch=n enabled=y phases=2 Linecode=1P_UG_AL_4/0_Sweetbriar_0_416_0_2_2_2_2

New Line.l(r:p3udm1717-p3ulv35096) Units=km Length=0.0109272 bus1=p3udm1717.1.2 bus2=p3ulv35096.1.2 switch=n enabled=y phases=2 Linecode=1P_UG_AL_1/0_Brenau_0_416_0_2_2_2_2

New Line.l(r:p3udm1718-p3ulv68955) Units=km Length=0.0174882 bus1=p3udm1718.1.2 bus2=p3ulv68955.1.2 switch=n enabled=y phases=2 Linecode=1P_UG_AL_1/0_Brenau_0_416_0_2_2_2_2

New Line.l(r:p3udm1717-p3udm1718) Units=km Length=0.009692060000000002 bus1=p3udm1717.1.2 bus2=p3udm1718.1.2 switch=n enabled=y phases=2 Linecode=1P_UG_AL_1/0_Brenau_0_416_0_2_2_2_2

New Line.l(r:p3udm1717-p3udt516lv) Units=km Length=0.009692060000000002 bus1=p3udt516lv.1.2 bus2=p3udm1717.1.2 switch=n enabled=y phases=2 Linecode=1P_UG_AL_4/0_Sweetbriar_0_416_0_2_2_2_2

New Line.l(r:p3udm4242-p3ulv1406) Units=km Length=0.0148156 bus1=p3udm4242.1.2 bus2=p3ulv1406.1.2 switch=n enabled=y phases=2 Linecode=1P_UG_AL_2/0_Converse_0_416_0_2_2_2_2

New Line.l(r:p3udm4242-p3ulv15581) Units=km Length=0.0184762 bus1=p3udm4242.1.2 bus2=p3ulv15581.1.2 switch=n enabled=y phases=2 Linecode=1P_UG_AL_2/0_Converse_0_416_0_2_2_2_2

New Line.l(r:p3udm4242-p3udt1233lv) Units=km Length=0.00938512 bus1=p3udt1233lv.1.2 bus2=p3udm4242.1.2 switch=n enabled=y phases=2 Linecode=1P_UG_AL_4/0_Sweetbriar_0_416_0_2_2_2_2

New Line.l(r:p3udm4244-p3ulv23330) Units=km Length=0.0181463 bus1=p3udm4244.1.2 bus2=p3ulv23330.1.2 switch=n enabled=y phases=2 Linecode=1P_UG_AL_2/0_Converse_0_416_0_2_2_2_2

New Line.l(r:p3udm4244-p3ulv46743) Units=km Length=0.0188136 bus1=p3udm4244.1.2 bus2=p3ulv46743.1.2 switch=n enabled=y phases=2 Linecode=1P_UG_AL_1/0_Brenau_0_416_0_2_2_2_2

New Line.l(r:p3udm4244-p3udt1233lv) Units=km Length=0.00938546 bus1=p3udt1233lv.1.2 bus2=p3udm4244.1.2 switch=n enabled=y phases=2 Linecode=1P_UG_AL_4/0_Sweetbriar_0_416_0_2_2_2_2

New Line.l(r:p3udm4246-p3ulv1407) Units=km Length=0.0187102 bus1=p3udm4246.1.2 bus2=p3ulv1407.1.2 switch=n enabled=y phases=2 Linecode=1P_UG_AL_4/0_Sweetbriar_0_416_0_2_2_2_2

New Line.l(r:p3udm4246-p3udt1234lv) Units=km Length=0.00902017 bus1=p3udt1234lv.1.2 bus2=p3udm4246.1.2 switch=n enabled=y phases=2 Linecode=1P_UG_AL_4/0_Sweetbriar_0_416_0_2_2_2_2

New Line.l(r:p3udm4247-p3ulv75784) Units=km Length=0.0144449 bus1=p3udm4247.1.2 bus2=p3ulv75784.1.2 switch=n enabled=y phases=2 Linecode=1P_UG_AL_1/0_Brenau_0_416_0_2_2_2_2

New Line.l(r:p3udm4247-p3udt1234lv) Units=km Length=0.00903011 bus1=p3udt1234lv.1.2 bus2=p3udm4247.1.2 switch=n enabled=y phases=2 Linecode=1P_UG_AL_1/0_Brenau_0_416_0_2_2_2_2

New Line.l(r:p3udm4267-p3ulv1415) Units=km Length=0.0170165 bus1=p3udm4267.1.2 bus2=p3ulv1415.1.2 switch=n enabled=y phases=2 Linecode=1P_UG_AL_1/0_Brenau_0_416_0_2_2_2_2

New Line.l(r:p3udm4267-p3ulv21764) Units=km Length=0.017580400000000003 bus1=p3udm4267.1.2 bus2=p3ulv21764.1.2 switch=n enabled=y phases=2 Linecode=1P_UG_AL_1/0_Brenau_0_416_0_2_2_2_2

New Line.l(r:p3udm4267-p3udt1242lv) Units=km Length=0.00683059 bus1=p3udt1242lv.1.2 bus2=p3udm4267.1.2 switch=n enabled=y phases=2 Linecode=1P_UG_AL_4/0_Sweetbriar_0_416_0_2_2_2_2

New Line.l(r:p3udm4269-p3ulv48261) Units=km Length=0.0192141 bus1=p3udm4269.1.2 bus2=p3ulv48261.1.2 switch=n enabled=y phases=2 Linecode=1P_UG_AL_1/0_Brenau_0_416_0_2_2_2_2

New Line.l(r:p3udm4269-p3udt1242lv) Units=km Length=0.0136548 bus1=p3udt1242lv.1.2 bus2=p3udm4269.1.2 switch=n enabled=y phases=2 Linecode=1P_UG_AL_1/0_Brenau_0_416_0_2_2_2_2

New Line.l(r:p3udt1244lv-p3ulv79692) Units=km Length=0.0139445 bus1=p3udt1244lv.1.2 bus2=p3ulv79692.1.2 switch=n enabled=y phases=2 Linecode=1P_UG_AL_1/0_Brenau_0_416_0_2_2_2_2

New Line.l(r:p3udm4274-p3ulv1417) Units=km Length=0.0141194 bus1=p3udm4274.1.2 bus2=p3ulv1417.1.2 switch=n enabled=y phases=2 Linecode=1P_UG_AL_4/0_Sweetbriar_0_416_0_2_2_2_2

New Line.l(r:p3udm4274-p3udt1244lv) Units=km Length=0.0198333 bus1=p3udt1244lv.1.2 bus2=p3udm4274.1.2 switch=n enabled=y phases=2 Linecode=1P_UG_AL_4/0_Sweetbriar_0_416_0_2_2_2_2

New Line.l(r:p3udm4275-p3ulv20211) Units=km Length=0.0141605 bus1=p3udm4275.1.2 bus2=p3ulv20211.1.2 switch=n enabled=y phases=2 Linecode=1P_UG_AL_1/0_Brenau_0_416_0_2_2_2_2

New Line.l(r:p3udm4276-p3ulv42023) Units=km Length=0.013974700000000001 bus1=p3udm4276.1.2 bus2=p3ulv42023.1.2 switch=n enabled=y phases=2 Linecode=1P_UG_AL_1/0_Brenau_0_416_0_2_2_2_2

New Line.l(r:p3udm4275-p3udm4276) Units=km Length=0.0194226 bus1=p3udm4275.1.2 bus2=p3udm4276.1.2 switch=n enabled=y phases=2 Linecode=1P_UG_AL_1/0_Brenau_0_416_0_2_2_2_2

New Line.l(r:p3udm4275-p3udt1244lv) Units=km Length=0.00971631 bus1=p3udt1244lv.1.2 bus2=p3udm4275.1.2 switch=n enabled=y phases=2 Linecode=1P_UG_AL_4/0_Sweetbriar_0_416_0_2_2_2_2

New Line.l(r:p3udt1245lv-p3ulv33541) Units=km Length=0.0124956 bus1=p3udt1245lv.1.2 bus2=p3ulv33541.1.2 switch=n enabled=y phases=2 Linecode=1P_UG_AL_1/0_Brenau_0_416_0_2_2_2_2

New Line.l(r:p3udm4279-p3ulv18702) Units=km Length=0.0186254 bus1=p3udm4279.1.2 bus2=p3ulv18702.1.2 switch=n enabled=y phases=2 Linecode=1P_UG_AL_1/0_Brenau_0_416_0_2_2_2_2

New Line.l(r:p3udm4278-p3ulv1418) Units=km Length=0.0128652 bus1=p3udm4278.1.2 bus2=p3ulv1418.1.2 switch=n enabled=y phases=2 Linecode=1P_UG_AL_4/0_Sweetbriar_0_416_0_2_2_2_2

New Line.l(r:p3udm4278-p3udm4279) Units=km Length=0.00798181 bus1=p3udm4279.1.2 bus2=p3udm4278.1.2 switch=n enabled=y phases=2 Linecode=1P_UG_AL_4/0_Sweetbriar_0_416_0_2_2_2_2

New Line.l(r:p3udm4279-p3udt1245lv) Units=km Length=0.00798203 bus1=p3udt1245lv.1.2 bus2=p3udm4279.1.2 switch=n enabled=y phases=2 Linecode=1P_UG_AL_4/0_Sweetbriar_0_416_0_2_2_2_2

New Line.l(r:p3udm4280-p3ulv27359) Units=km Length=0.018276600000000004 bus1=p3udm4280.1.2 bus2=p3ulv27359.1.2 switch=n enabled=y phases=2 Linecode=1P_UG_AL_1/0_Brenau_0_416_0_2_2_2_2

New Line.l(r:p3udm4280-p3udt1245lv) Units=km Length=0.0163654 bus1=p3udt1245lv.1.2 bus2=p3udm4280.1.2 switch=n enabled=y phases=2 Linecode=1P_UG_AL_1/0_Brenau_0_416_0_2_2_2_2

New Line.l(r:p3udt1246lv-p3ulv1419) Units=km Length=0.0176443 bus1=p3udt1246lv.1.2 bus2=p3ulv1419.1.2 switch=n enabled=y phases=2 Linecode=1P_UG_AL_4/0_Sweetbriar_0_416_0_2_2_2_2

New Line.l(r:p3udm4283-p3ulv11732) Units=km Length=0.0146357 bus1=p3udm4283.1.2 bus2=p3ulv11732.1.2 switch=n enabled=y phases=2 Linecode=1P_UG_AL_1/0_Brenau_0_416_0_2_2_2_2

New Line.l(r:p3udm4283-p3udt1246lv) Units=km Length=0.0091022 bus1=p3udt1246lv.1.2 bus2=p3udm4283.1.2 switch=n enabled=y phases=2 Linecode=1P_UG_AL_1/0_Brenau_0_416_0_2_2_2_2

New Line.l(r:p3udm4284-p3ulv17156) Units=km Length=0.0154038 bus1=p3udm4284.1.2 bus2=p3ulv17156.1.2 switch=n enabled=y phases=2 Linecode=1P_UG_AL_4/0_Sweetbriar_0_416_0_2_2_2_2

New Line.l(r:p3udm4285-p3ulv58996) Units=km Length=0.0188674 bus1=p3udm4285.1.2 bus2=p3ulv58996.1.2 switch=n enabled=y phases=2 Linecode=1P_UG_AL_1/0_Brenau_0_416_0_2_2_2_2

New Line.l(r:p3udm4284-p3udm4285) Units=km Length=0.0091022 bus1=p3udm4284.1.2 bus2=p3udm4285.1.2 switch=n enabled=y phases=2 Linecode=1P_UG_AL_1/0_Brenau_0_416_0_2_2_2_2

New Line.l(r:p3udm4284-p3udt1246lv) Units=km Length=0.00911242 bus1=p3udt1246lv.1.2 bus2=p3udm4284.1.2 switch=n enabled=y phases=2 Linecode=1P_UG_AL_4/0_Sweetbriar_0_416_0_2_2_2_2

New Line.l(r:p3udt1978lv-p3ulv68952) Units=km Length=0.0159064 bus1=p3udt1978lv.1.2 bus2=p3ulv68952.1.2 switch=n enabled=y phases=2 Linecode=1P_UG_AL_1/0_Brenau_0_416_0_2_2_2_2

New Line.l(r:p3udt1978lv-p3ulv78918) Units=km Length=0.021426000000000004 bus1=p3udt1978lv.1.2 bus2=p3ulv78918.1.2 switch=n enabled=y phases=2 Linecode=1P_UG_AL_1/0_Brenau_0_416_0_2_2_2_2

New Line.l(r:p3udm6830-p3ulv2192) Units=km Length=0.0168306 bus1=p3udm6830.1.2 bus2=p3ulv2192.1.2 switch=n enabled=y phases=2 Linecode=1P_UG_AL_1/0_Brenau_0_416_0_2_2_2_2

New Line.l(r:p3udm6830-p3ulv13245) Units=km Length=0.0157685 bus1=p3udm6830.1.2 bus2=p3ulv13245.1.2 switch=n enabled=y phases=2 Linecode=1P_UG_AL_1/0_Brenau_0_416_0_2_2_2_2

New Line.l(r:p3udm6830-p3udt1978lv) Units=km Length=0.00958706 bus1=p3udt1978lv.1.2 bus2=p3udm6830.1.2 switch=n enabled=y phases=2 Linecode=1P_UG_AL_4/0_Sweetbriar_0_416_0_2_2_2_2

New Line.l(r:p3udm6832-p3ulv30363) Units=km Length=0.01762 bus1=p3udm6832.1.2 bus2=p3ulv30363.1.2 switch=n enabled=y phases=2 Linecode=1P_UG_AL_1/0_Brenau_0_416_0_2_2_2_2

New Line.l(r:p3udm6832-p3udt1978lv) Units=km Length=0.0191956 bus1=p3udt1978lv.1.2 bus2=p3udm6832.1.2 switch=n enabled=y phases=2 Linecode=1P_UG_AL_1/0_Brenau_0_416_0_2_2_2_2

New Line.l(r:p3udm6835-p3ulv2193) Units=km Length=0.0150229 bus1=p3udm6835.1.2 bus2=p3ulv2193.1.2 switch=n enabled=y phases=2 Linecode=1P_UG_AL_4/0_Sweetbriar_0_416_0_2_2_2_2

New Line.l(r:p3udm6836-p3ulv33543) Units=km Length=0.0177124 bus1=p3udm6836.1.2 bus2=p3ulv33543.1.2 switch=n enabled=y phases=2 Linecode=1P_UG_AL_4/0_Sweetbriar_0_416_0_2_2_2_2

New Line.l(r:p3udm6835-p3udm6836) Units=km Length=0.00987317 bus1=p3udm6835.1.2 bus2=p3udm6836.1.2 switch=n enabled=y phases=2 Linecode=1P_UG_AL_4/0_Sweetbriar_0_416_0_2_2_2_2

New Line.l(r:p3udm6835-p3udt1979lv) Units=km Length=0.0197361 bus1=p3udt1979lv.1.2 bus2=p3udm6835.1.2 switch=n enabled=y phases=2 Linecode=1P_UG_AL_4/0_Sweetbriar_0_416_0_2_2_2_2

New Line.l(r:p3udm6837-p3ulv35097) Units=km Length=0.0103708 bus1=p3udm6837.1.2 bus2=p3ulv35097.1.2 switch=n enabled=y phases=2 Linecode=1P_UG_AL_1/0_Brenau_0_416_0_2_2_2_2

New Line.l(r:p3udm6838-p3ulv54382) Units=km Length=0.017497 bus1=p3udm6838.1.2 bus2=p3ulv54382.1.2 switch=n enabled=y phases=2 Linecode=1P_UG_AL_1/0_Brenau_0_416_0_2_2_2_2

New Line.l(r:p3udm6837-p3udm6838) Units=km Length=0.00913315 bus1=p3udm6837.1.2 bus2=p3udm6838.1.2 switch=n enabled=y phases=2 Linecode=1P_UG_AL_1/0_Brenau_0_416_0_2_2_2_2

New Line.l(r:p3udm6837-p3udt1979lv) Units=km Length=0.0661726 bus1=p3udt1979lv.1.2 bus2=p3udm6837.1.2 switch=n enabled=y phases=2 Linecode=1P_UG_AL_4/0_Sweetbriar_0_416_0_2_2_2_2

New Line.l(r:p3udt1980lv-p3ulv15590) Units=km Length=0.0164146 bus1=p3udt1980lv.1.2 bus2=p3ulv15590.1.2 switch=n enabled=y phases=2 Linecode=1P_UG_AL_1/0_Brenau_0_416_0_2_2_2_2

New Line.l(r:p3udt1980lv-p3ulv21769) Units=km Length=0.0151988 bus1=p3udt1980lv.1.2 bus2=p3ulv21769.1.2 switch=n enabled=y phases=2 Linecode=1P_UG_AL_1/0_Brenau_0_416_0_2_2_2_2

New Line.l(r:p3udm6839-p3ulv2194) Units=km Length=0.015406400000000002 bus1=p3udm6839.1.2 bus2=p3ulv2194.1.2 switch=n enabled=y phases=2 Linecode=1P_UG_AL_1/0_Brenau_0_416_0_2_2_2_2

New Line.l(r:p3udm6839-p3udt1980lv) Units=km Length=0.00986852 bus1=p3udt1980lv.1.2 bus2=p3udm6839.1.2 switch=n enabled=y phases=2 Linecode=1P_UG_AL_1/0_Brenau_0_416_0_2_2_2_2

New Line.l(r:p3udm6842-p3ulv31956) Units=km Length=0.0157992 bus1=p3udm6842.1.2 bus2=p3ulv31956.1.2 switch=n enabled=y phases=2 Linecode=1P_UG_AL_1/0_Brenau_0_416_0_2_2_2_2

New Line.l(r:p3udm6842-p3udt1980lv) Units=km Length=0.0478819 bus1=p3udt1980lv.1.2 bus2=p3udm6842.1.2 switch=n enabled=y phases=2 Linecode=1P_UG_AL_1/0_Brenau_0_416_0_2_2_2_2

New Line.l(r:p3udt2713lv-p3ulv8568) Units=km Length=0.0146815 bus1=p3udt2713lv.1.2 bus2=p3ulv8568.1.2 switch=n enabled=y phases=2 Linecode=1P_UG_AL_1/0_Brenau_0_416_0_2_2_2_2

New Line.l(r:p3udt2713lv-p3ulv68153) Units=km Length=0.0149586 bus1=p3udt2713lv.1.2 bus2=p3ulv68153.1.2 switch=n enabled=y phases=2 Linecode=1P_UG_AL_1/0_Brenau_0_416_0_2_2_2_2

New Line.l(r:p3udm9461-p3ulv2998) Units=km Length=0.0145993 bus1=p3udm9461.1.2 bus2=p3ulv2998.1.2 switch=n enabled=y phases=2 Linecode=1P_UG_AL_1/0_Brenau_0_416_0_2_2_2_2

New Line.l(r:p3udm9461-p3udt2713lv) Units=km Length=0.017633 bus1=p3udt2713lv.1.2 bus2=p3udm9461.1.2 switch=n enabled=y phases=2 Linecode=1P_UG_AL_1/0_Brenau_0_416_0_2_2_2_2

New Line.l(r:p3udm9463-p3ulv22568) Units=km Length=0.014011600000000003 bus1=p3udm9463.1.2 bus2=p3ulv22568.1.2 switch=n enabled=y phases=2 Linecode=1P_UG_AL_1/0_Brenau_0_416_0_2_2_2_2

New Line.l(r:p3udm9463-p3udt2713lv) Units=km Length=0.029651 bus1=p3udt2713lv.1.2 bus2=p3udm9463.1.2 switch=n enabled=y phases=2 Linecode=1P_UG_AL_1/0_Brenau_0_416_0_2_2_2_2

New Line.l(r:p3udt2714lv-p3ulv52840) Units=km Length=0.0139852 bus1=p3udt2714lv.1.2 bus2=p3ulv52840.1.2 switch=n enabled=y phases=2 Linecode=1P_UG_AL_1/0_Brenau_0_416_0_2_2_2_2

New Line.l(r:p3udm9466-p3ulv7806) Units=km Length=0.014275000000000001 bus1=p3udm9466.1.2 bus2=p3ulv7806.1.2 switch=n enabled=y phases=2 Linecode=1P_UG_AL_1/0_Brenau_0_416_0_2_2_2_2

New Line.l(r:p3udm9466-p3ulv50545) Units=km Length=0.0190851 bus1=p3udm9466.1.2 bus2=p3ulv50545.1.2 switch=n enabled=y phases=2 Linecode=1P_UG_AL_1/0_Brenau_0_416_0_2_2_2_2

New Line.l(r:p3udm9466-p3udt2714lv) Units=km Length=0.009437650000000002 bus1=p3udt2714lv.1.2 bus2=p3udm9466.1.2 switch=n enabled=y phases=2 Linecode=1P_UG_AL_4/0_Sweetbriar_0_416_0_2_2_2_2

New Line.l(r:p3udm9469-p3ulv68158) Units=km Length=0.0184422 bus1=p3udm9469.1.2 bus2=p3ulv68158.1.2 switch=n enabled=y phases=2 Linecode=1P_UG_AL_1/0_Brenau_0_416_0_2_2_2_2

New Line.l(r:p3udm9465-p3ulv2999) Units=km Length=0.0137821 bus1=p3udm9465.1.2 bus2=p3ulv2999.1.2 switch=n enabled=y phases=2 Linecode=1P_UG_AL_4/0_Sweetbriar_0_416_0_2_2_2_2

New Line.l(r:p3udm9465-p3udm9469) Units=km Length=0.00942766 bus1=p3udm9469.1.2 bus2=p3udm9465.1.2 switch=n enabled=y phases=2 Linecode=1P_UG_AL_4/0_Sweetbriar_0_416_0_2_2_2_2

New Line.l(r:p3udm9469-p3udt2714lv) Units=km Length=0.009437260000000001 bus1=p3udt2714lv.1.2 bus2=p3udm9469.1.2 switch=n enabled=y phases=2 Linecode=1P_UG_AL_4/0_Sweetbriar_0_416_0_2_2_2_2

New Line.l(r:p3udt3425lv-p3ulv3788) Units=km Length=0.0209662 bus1=p3udt3425lv.1.2 bus2=p3ulv3788.1.2 switch=n enabled=y phases=2 Linecode=1P_UG_AL_4/0_Sweetbriar_0_416_0_2_2_2_2

New Line.l(r:p3udt3425lv-p3ulv15580) Units=km Length=0.0212693 bus1=p3udt3425lv.1.2 bus2=p3ulv15580.1.2 switch=n enabled=y phases=2 Linecode=1P_UG_AL_2/0_Converse_0_416_0_2_2_2_2

New Line.l(r:p3udm11820-p3ulv3790) Units=km Length=0.0167987 bus1=p3udm11820.1.2 bus2=p3ulv3790.1.2 switch=n enabled=y phases=2 Linecode=1P_UG_AL_4/0_Sweetbriar_0_416_0_2_2_2_2

New Line.l(r:p3udm11820-p3ulv45208) Units=km Length=0.0169501 bus1=p3udm11820.1.2 bus2=p3ulv45208.1.2 switch=n enabled=y phases=2 Linecode=1P_UG_AL_1/0_Brenau_0_416_0_2_2_2_2

New Line.l(r:p3udm11820-p3udt3427lv) Units=km Length=0.00938512 bus1=p3udt3427lv.1.2 bus2=p3udm11820.1.2 switch=n enabled=y phases=2 Linecode=1P_UG_AL_4/0_Sweetbriar_0_416_0_2_2_2_2

New Line.l(r:p3udm11822-p3ulv55896) Units=km Length=0.016783 bus1=p3udm11822.1.2 bus2=p3ulv55896.1.2 switch=n enabled=y phases=2 Linecode=1P_UG_AL_1/0_Brenau_0_416_0_2_2_2_2

New Line.l(r:p3udm11822-p3udt3427lv) Units=km Length=0.00902017 bus1=p3udt3427lv.1.2 bus2=p3udm11822.1.2 switch=n enabled=y phases=2 Linecode=1P_UG_AL_1/0_Brenau_0_416_0_2_2_2_2

New Line.l(r:p3udm11840-p3ulv3795) Units=km Length=0.0164607 bus1=p3udm11840.1.2 bus2=p3ulv3795.1.2 switch=n enabled=y phases=2 Linecode=1P_UG_AL_4/0_Sweetbriar_0_416_0_2_2_2_2

New Line.l(r:p3udm11840-p3udt3432lv) Units=km Length=0.0178516 bus1=p3udt3432lv.1.2 bus2=p3udm11840.1.2 switch=n enabled=y phases=2 Linecode=1P_UG_AL_4/0_Sweetbriar_0_416_0_2_2_2_2

New Line.l(r:p3udm11841-p3ulv23332) Units=km Length=0.0159419 bus1=p3udm11841.1.2 bus2=p3ulv23332.1.2 switch=n enabled=y phases=2 Linecode=1P_UG_AL_4/0_Sweetbriar_0_416_0_2_2_2_2

New Line.l(r:p3udm11841-p3udt3432lv) Units=km Length=0.00883577 bus1=p3udt3432lv.1.2 bus2=p3udm11841.1.2 switch=n enabled=y phases=2 Linecode=1P_UG_AL_4/0_Sweetbriar_0_416_0_2_2_2_2

New Line.l(r:p3udt3447lv-p3ulv3811) Units=km Length=0.0204108 bus1=p3udt3447lv.1.2 bus2=p3ulv3811.1.2 switch=n enabled=y phases=2 Linecode=1P_OH_AL_2/0_Rucina_0_416_0_2_2_2_2

New Line.l(r:p3udt3447lv-p3ulv25784) Units=km Length=0.0167013 bus1=p3udt3447lv.1.2 bus2=p3ulv25784.1.2 switch=n enabled=y phases=2 Linecode=1P_OH_AL_2/0_Rucina_0_416_0_2_2_2_2

New Line.l(r:p3udt3447lv-p3ulv25786) Units=km Length=0.0227594 bus1=p3udt3447lv.1.2 bus2=p3ulv25786.1.2 switch=n enabled=y phases=2 Linecode=1P_OH_AL_2/0_Rucina_0_416_0_2_2_2_2

New Line.l(r:p3udt3447lv-p3ulv37333) Units=km Length=0.0253151 bus1=p3udt3447lv.1.2 bus2=p3ulv37333.1.2 switch=n enabled=y phases=2 Linecode=1P_OH_AL_2/0_Rucina_0_416_0_2_2_2_2

New Line.l(r:p3udm11895-p3ulv28118) Units=km Length=0.0237554 bus1=p3udm11895.1.2 bus2=p3ulv28118.1.2 switch=n enabled=y phases=2 Linecode=1P_OH_AL_2/0_Rucina_0_416_0_2_2_2_2

New Line.l(r:p3udm11897-p3ulv38869) Units=km Length=0.01629 bus1=p3udm11897.1.2 bus2=p3ulv38869.1.2 switch=n enabled=y phases=2 Linecode=1P_OH_AL_2/0_Rucina_0_416_0_2_2_2_2

New Line.l(r:p3udm11895-p3udm11897) Units=km Length=0.0874449 bus1=p3udm11895.1.2 bus2=p3udm11897.1.2 switch=n enabled=y phases=2 Linecode=1P_OH_AL_4/0_Zuzara_0_416_0_2_2_2_2

New Line.l(r:p3udm11895-p3udt3447lv) Units=km Length=0.018020900000000003 bus1=p3udt3447lv.1.2 bus2=p3udm11895.1.2 switch=n enabled=y phases=2 Linecode=1P_OH_AL_2/0_Rucina_0_416_0_2_2_2_2

New Line.l(r:p3udm11898-p3ulv3812) Units=km Length=0.0129108 bus1=p3udm11898.1.2 bus2=p3ulv3812.1.2 switch=n enabled=y phases=2 Linecode=1P_UG_AL_4/0_Sweetbriar_0_416_0_2_2_2_2

New Line.l(r:p3udm11898-p3udt3448lv) Units=km Length=0.0444617 bus1=p3udt3448lv.1.2 bus2=p3udm11898.1.2 switch=n enabled=y phases=2 Linecode=1P_OH_AL_4/0_Zuzara_0_416_0_2_2_2_2

New Line.l(r:p3udm11899-p3ulv9311) Units=km Length=0.0130487 bus1=p3udm11899.1.2 bus2=p3ulv9311.1.2 switch=n enabled=y phases=2 Linecode=1P_OH_AL_2/0_Rucina_0_416_0_2_2_2_2

New Line.l(r:p3udm11899-p3udt3448lv) Units=km Length=0.0332489 bus1=p3udt3448lv.1.2 bus2=p3udm11899.1.2 switch=n enabled=y phases=2 Linecode=1P_OH_AL_4/0_Zuzara_0_416_0_2_2_2_2

New Line.l(r:p3udt3450lv-p3ulv3814) Units=km Length=0.0230312 bus1=p3udt3450lv.1.2 bus2=p3ulv3814.1.2 switch=n enabled=y phases=2 Linecode=1P_UG_AL_1/0_Brenau_0_416_0_2_2_2_2

New Line.l(r:p3udm11908-p3ulv3816) Units=km Length=0.0162768 bus1=p3udm11908.1.2 bus2=p3ulv3816.1.2 switch=n enabled=y phases=2 Linecode=1P_UG_AL_1/0_Brenau_0_416_0_2_2_2_2

New Line.l(r:p3udm11908-p3ulv40451) Units=km Length=0.0159865 bus1=p3udm11908.1.2 bus2=p3ulv40451.1.2 switch=n enabled=y phases=2 Linecode=1P_UG_AL_1/0_Brenau_0_416_0_2_2_2_2

New Line.l(r:p3udm11908-p3ulv55920) Units=km Length=0.0149125 bus1=p3udm11908.1.2 bus2=p3ulv55920.1.2 switch=n enabled=y phases=2 Linecode=1P_UG_AL_1/0_Brenau_0_416_0_2_2_2_2

New Line.l(r:p3udm11908-p3udt3452lv) Units=km Length=0.009152890000000002 bus1=p3udt3452lv.1.2 bus2=p3udm11908.1.2 switch=n enabled=y phases=2 Linecode=1P_UG_AL_4/0_Sweetbriar_0_416_0_2_2_2_2

New Line.l(r:p3udm11909-p3ulv14808) Units=km Length=0.0159137 bus1=p3udm11909.1.2 bus2=p3ulv14808.1.2 switch=n enabled=y phases=2 Linecode=1P_UG_AL_1/0_Brenau_0_416_0_2_2_2_2

New Line.l(r:p3udm11909-p3ulv69682) Units=km Length=0.0153659 bus1=p3udm11909.1.2 bus2=p3ulv69682.1.2 switch=n enabled=y phases=2 Linecode=1P_UG_AL_1/0_Brenau_0_416_0_2_2_2_2

New Line.l(r:p3udm11909-p3udt3452lv) Units=km Length=0.00916289 bus1=p3udt3452lv.1.2 bus2=p3udm11909.1.2 switch=n enabled=y phases=2 Linecode=1P_UG_AL_4/0_Sweetbriar_0_416_0_2_2_2_2

New Line.l(r:p3udm11913-p3ulv3817) Units=km Length=0.01607 bus1=p3udm11913.1.2 bus2=p3ulv3817.1.2 switch=n enabled=y phases=2 Linecode=1P_UG_AL_1/0_Brenau_0_416_0_2_2_2_2

New Line.l(r:p3udm11914-p3ulv32769) Units=km Length=0.0153876 bus1=p3udm11914.1.2 bus2=p3ulv32769.1.2 switch=n enabled=y phases=2 Linecode=1P_UG_AL_1/0_Brenau_0_416_0_2_2_2_2

New Line.l(r:p3udm11913-p3udm11914) Units=km Length=0.00907292 bus1=p3udm11913.1.2 bus2=p3udm11914.1.2 switch=n enabled=y phases=2 Linecode=1P_UG_AL_1/0_Brenau_0_416_0_2_2_2_2

New Line.l(r:p3udm11913-p3udt3453lv) Units=km Length=0.00907292 bus1=p3udt3453lv.1.2 bus2=p3udm11913.1.2 switch=n enabled=y phases=2 Linecode=1P_UG_AL_4/0_Sweetbriar_0_416_0_2_2_2_2

New Line.l(r:p3udm11915-p3ulv55919) Units=km Length=0.0166944 bus1=p3udm11915.1.2 bus2=p3ulv55919.1.2 switch=n enabled=y phases=2 Linecode=1P_UG_AL_1/0_Brenau_0_416_0_2_2_2_2

New Line.l(r:p3udm11915-p3ulv73525) Units=km Length=0.0166666 bus1=p3udm11915.1.2 bus2=p3ulv73525.1.2 switch=n enabled=y phases=2 Linecode=1P_UG_AL_1/0_Brenau_0_416_0_2_2_2_2

New Line.l(r:p3udm11915-p3udt3453lv) Units=km Length=0.00906318 bus1=p3udt3453lv.1.2 bus2=p3udm11915.1.2 switch=n enabled=y phases=2 Linecode=1P_UG_AL_4/0_Sweetbriar_0_416_0_2_2_2_2

New Line.l(r:p3udt3454lv-p3ulv3818) Units=km Length=0.0167435 bus1=p3udt3454lv.1.2 bus2=p3ulv3818.1.2 switch=n enabled=y phases=2 Linecode=1P_UG_AL_4/0_Sweetbriar_0_416_0_2_2_2_2

New Line.l(r:p3udm11918-p3ulv48996) Units=km Length=0.0150883 bus1=p3udm11918.1.2 bus2=p3ulv48996.1.2 switch=n enabled=y phases=2 Linecode=1P_UG_AL_4/0_Sweetbriar_0_416_0_2_2_2_2

New Line.l(r:p3udm11918-p3udt3454lv) Units=km Length=0.00987317 bus1=p3udt3454lv.1.2 bus2=p3udm11918.1.2 switch=n enabled=y phases=2 Linecode=1P_UG_AL_4/0_Sweetbriar_0_416_0_2_2_2_2

New Line.l(r:p3udt3455lv-p3ulv3819) Units=km Length=0.014319000000000002 bus1=p3udt3455lv.1.2 bus2=p3ulv3819.1.2 switch=n enabled=y phases=2 Linecode=1P_UG_AL_1/0_Brenau_0_416_0_2_2_2_2

New Line.l(r:p3udt3455lv-p3ulv78920) Units=km Length=0.0150093 bus1=p3udt3455lv.1.2 bus2=p3ulv78920.1.2 switch=n enabled=y phases=2 Linecode=1P_UG_AL_1/0_Brenau_0_416_0_2_2_2_2

New Line.l(r:p3udm11922-p3ulv16412) Units=km Length=0.0147053 bus1=p3udm11922.1.2 bus2=p3ulv16412.1.2 switch=n enabled=y phases=2 Linecode=1P_UG_AL_1/0_Brenau_0_416_0_2_2_2_2

New Line.l(r:p3udm11921-p3ulv3820) Units=km Length=0.0150745 bus1=p3udm11921.1.2 bus2=p3ulv3820.1.2 switch=n enabled=y phases=2 Linecode=1P_UG_AL_1/0_Brenau_0_416_0_2_2_2_2

New Line.l(r:p3udm11921-p3udm11922) Units=km Length=0.00986852 bus1=p3udm11922.1.2 bus2=p3udm11921.1.2 switch=n enabled=y phases=2 Linecode=1P_UG_AL_1/0_Brenau_0_416_0_2_2_2_2

New Line.l(r:p3udm11922-p3udt3456lv) Units=km Length=0.00987317 bus1=p3udt3456lv.1.2 bus2=p3udm11922.1.2 switch=n enabled=y phases=2 Linecode=1P_UG_AL_4/0_Sweetbriar_0_416_0_2_2_2_2

New Line.l(r:p3udm11923-p3ulv42797) Units=km Length=0.0141146 bus1=p3udm11923.1.2 bus2=p3ulv42797.1.2 switch=n enabled=y phases=2 Linecode=1P_UG_AL_1/0_Brenau_0_416_0_2_2_2_2

New Line.l(r:p3udm11924-p3ulv71291) Units=km Length=0.0148326 bus1=p3udm11924.1.2 bus2=p3ulv71291.1.2 switch=n enabled=y phases=2 Linecode=1P_UG_AL_1/0_Brenau_0_416_0_2_2_2_2

New Line.l(r:p3udm11924-p3ulv73526) Units=km Length=0.0168801 bus1=p3udm11924.1.2 bus2=p3ulv73526.1.2 switch=n enabled=y phases=2 Linecode=1P_UG_AL_1/0_Brenau_0_416_0_2_2_2_2

New Line.l(r:p3udm11923-p3udm11924) Units=km Length=0.00987317 bus1=p3udm11923.1.2 bus2=p3udm11924.1.2 switch=n enabled=y phases=2 Linecode=1P_UG_AL_4/0_Sweetbriar_0_416_0_2_2_2_2

New Line.l(r:p3udm11923-p3udt3456lv) Units=km Length=0.00987317 bus1=p3udt3456lv.1.2 bus2=p3udm11923.1.2 switch=n enabled=y phases=2 Linecode=1P_UG_AL_4/0_Sweetbriar_0_416_0_2_2_2_2

New Line.l(r:p3udt3457lv-p3ulv3821) Units=km Length=0.0189883 bus1=p3udt3457lv.1.2 bus2=p3ulv3821.1.2 switch=n enabled=y phases=2 Linecode=1P_UG_AL_2/0_Converse_0_416_0_2_2_2_2

New Line.l(r:p3udm14272-p3ulv4585) Units=km Length=0.011631800000000001 bus1=p3udm14272.1.2 bus2=p3ulv4585.1.2 switch=n enabled=y phases=2 Linecode=1P_UG_AL_1/0_Brenau_0_416_0_2_2_2_2

New Line.l(r:p3udm14275-p3ulv38122) Units=km Length=0.0168493 bus1=p3udm14275.1.2 bus2=p3ulv38122.1.2 switch=n enabled=y phases=2 Linecode=1P_UG_AL_1/0_Brenau_0_416_0_2_2_2_2

New Line.l(r:p3udm14272-p3udm14275) Units=km Length=0.0161698 bus1=p3udm14272.1.2 bus2=p3udm14275.1.2 switch=n enabled=y phases=2 Linecode=1P_UG_AL_1/0_Brenau_0_416_0_2_2_2_2

New Line.l(r:p3udm14272-p3udt4133lv) Units=km Length=0.008079910000000001 bus1=p3udt4133lv.1.2 bus2=p3udm14272.1.2 switch=n enabled=y phases=2 Linecode=1P_UG_AL_4/0_Sweetbriar_0_416_0_2_2_2_2

New Line.l(r:p3udm14274-p3ulv37337) Units=km Length=0.0124593 bus1=p3udm14274.1.2 bus2=p3ulv37337.1.2 switch=n enabled=y phases=2 Linecode=1P_UG_AL_1/0_Brenau_0_416_0_2_2_2_2

New Line.l(r:p3udm14273-p3ulv7805) Units=km Length=0.0176189 bus1=p3udm14273.1.2 bus2=p3ulv7805.1.2 switch=n enabled=y phases=2 Linecode=1P_UG_AL_1/0_Brenau_0_416_0_2_2_2_2

New Line.l(r:p3udm14273-p3udm14274) Units=km Length=0.00918142 bus1=p3udm14274.1.2 bus2=p3udm14273.1.2 switch=n enabled=y phases=2 Linecode=1P_UG_AL_1/0_Brenau_0_416_0_2_2_2_2

New Line.l(r:p3udm14274-p3udt4133lv) Units=km Length=0.0161698 bus1=p3udt4133lv.1.2 bus2=p3udm14274.1.2 switch=n enabled=y phases=2 Linecode=1P_UG_AL_4/0_Sweetbriar_0_416_0_2_2_2_2

New Line.l(r:p3udm14289-p3ulv4590) Units=km Length=0.0196515 bus1=p3udm14289.1.2 bus2=p3ulv4590.1.2 switch=n enabled=y phases=2 Linecode=1P_UG_AL_1/0_Brenau_0_416_0_2_2_2_2

New Line.l(r:p3udm14289-p3udt4138lv) Units=km Length=0.0284705 bus1=p3udt4138lv.1.2 bus2=p3udm14289.1.2 switch=n enabled=y phases=2 Linecode=1P_UG_AL_1/0_Brenau_0_416_0_2_2_2_2

New Line.l(r:p3udm14290-p3ulv72770) Units=km Length=0.014758500000000003 bus1=p3udm14290.1.2 bus2=p3ulv72770.1.2 switch=n enabled=y phases=2 Linecode=1P_UG_AL_1/0_Brenau_0_416_0_2_2_2_2

New Line.l(r:p3udm14290-p3udt4138lv) Units=km Length=0.0189803 bus1=p3udt4138lv.1.2 bus2=p3udm14290.1.2 switch=n enabled=y phases=2 Linecode=1P_UG_AL_1/0_Brenau_0_416_0_2_2_2_2

New Line.l(r:p3udt4818lv-p3ulv24160) Units=km Length=0.016519600000000002 bus1=p3udt4818lv.1.2 bus2=p3ulv24160.1.2 switch=n enabled=y phases=2 Linecode=1P_UG_AL_2/0_Converse_0_416_0_2_2_2_2

New Line.l(r:p3udm16603-p3ulv5380) Units=km Length=0.0151043 bus1=p3udm16603.1.2 bus2=p3ulv5380.1.2 switch=n enabled=y phases=2 Linecode=1P_UG_AL_4/0_Sweetbriar_0_416_0_2_2_2_2

New Line.l(r:p3udm16603-p3udt4818lv) Units=km Length=0.0087857 bus1=p3udt4818lv.1.2 bus2=p3udm16603.1.2 switch=n enabled=y phases=2 Linecode=1P_UG_AL_4/0_Sweetbriar_0_416_0_2_2_2_2

New Line.l(r:p3udm16673-p3ulv5405) Units=km Length=0.0172026 bus1=p3udm16673.1.2 bus2=p3ulv5405.1.2 switch=n enabled=y phases=2 Linecode=1P_UG_AL_4/0_Sweetbriar_0_416_0_2_2_2_2

New Line.l(r:p3udm16673-p3udt4838lv) Units=km Length=0.0445885 bus1=p3udt4838lv.1.2 bus2=p3udm16673.1.2 switch=n enabled=y phases=2 Linecode=1P_UG_AL_4/0_Sweetbriar_0_416_0_2_2_2_2

New Line.l(r:p3udm16674-p3ulv29605) Units=km Length=0.0169944 bus1=p3udm16674.1.2 bus2=p3ulv29605.1.2 switch=n enabled=y phases=2 Linecode=1P_UG_AL_1/0_Brenau_0_416_0_2_2_2_2

New Line.l(r:p3udm16674-p3ulv58191) Units=km Length=0.0174941 bus1=p3udm16674.1.2 bus2=p3ulv58191.1.2 switch=n enabled=y phases=2 Linecode=1P_UG_AL_1/0_Brenau_0_416_0_2_2_2_2
