New Line.l(r:p5udt8290lv-p5ulv41933) Units=km Length=0.0183622 bus1=p5udt8290lv.1.2 bus2=p5ulv41933.1.2 switch=n enabled=y phases=2 Linecode=1P_OH_AL_2/0_Rucina_0_416_0_2_2_2_2

New Line.l(r:p5udt8290lv-p5ulv63860) Units=km Length=0.016580200000000003 bus1=p5udt8290lv.1.2 bus2=p5ulv63860.1.2 switch=n enabled=y phases=2 Linecode=1P_OH_AL_2/0_Rucina_0_416_0_2_2_2_2

New Line.l(r:p5udt8290lv-p5ulv67136) Units=km Length=0.016800000000000002 bus1=p5udt8290lv.1.2 bus2=p5ulv67136.1.2 switch=n enabled=y phases=2 Linecode=1P_OH_AL_2/0_Rucina_0_416_0_2_2_2_2

New Line.l(r:p5udm22086-p5ulv19697) Units=km Length=0.0383194 bus1=p5udm22086.1.2 bus2=p5ulv19697.1.2 switch=n enabled=y phases=2 Linecode=1P_OH_AL_4/0_Zuzara_0_416_0_2_2_2_2

New Line.l(r:p5udm22086-p5udt8290lv) Units=km Length=0.0182972 bus1=p5udt8290lv.1.2 bus2=p5udm22086.1.2 switch=n enabled=y phases=2 Linecode=1P_OH_AL_2/0_Rucina_0_416_0_2_2_2_2

New Line.l(r:p5udt8292lv-p5ulv19699) Units=km Length=0.0123757 bus1=p5udt8292lv.1.2 bus2=p5ulv19699.1.2 switch=n enabled=y phases=2 Linecode=1P_UG_AL_1/0_Brenau_0_416_0_2_2_2_2

New Line.l(r:p5udm22096-p5ulv43035) Units=km Length=0.0167424 bus1=p5udm22096.1.2 bus2=p5ulv43035.1.2 switch=n enabled=y phases=2 Linecode=1P_UG_AL_1/0_Brenau_0_416_0_2_2_2_2

New Line.l(r:p5udm22094-p5ulv39695) Units=km Length=0.0130094 bus1=p5udm22094.1.2 bus2=p5ulv39695.1.2 switch=n enabled=y phases=2 Linecode=1P_UG_AL_1/0_Brenau_0_416_0_2_2_2_2

New Line.l(r:p5udm22094-p5udm22096) Units=km Length=0.00931075 bus1=p5udm22096.1.2 bus2=p5udm22094.1.2 switch=n enabled=y phases=2 Linecode=1P_UG_AL_1/0_Brenau_0_416_0_2_2_2_2

New Line.l(r:p5udm22096-p5udt8292lv) Units=km Length=0.00931949 bus1=p5udt8292lv.1.2 bus2=p5udm22096.1.2 switch=n enabled=y phases=2 Linecode=1P_UG_AL_4/0_Sweetbriar_0_416_0_2_2_2_2

New Line.l(r:p5udm22097-p5ulv58198) Units=km Length=0.0167575 bus1=p5udm22097.1.2 bus2=p5ulv58198.1.2 switch=n enabled=y phases=2 Linecode=1P_UG_AL_1/0_Brenau_0_416_0_2_2_2_2

New Line.l(r:p5udm22093-p5ulv26356) Units=km Length=0.016095 bus1=p5udm22093.1.2 bus2=p5ulv26356.1.2 switch=n enabled=y phases=2 Linecode=1P_UG_AL_1/0_Brenau_0_416_0_2_2_2_2

New Line.l(r:p5udm22093-p5ulv40224) Units=km Length=0.012102600000000002 bus1=p5udm22093.1.2 bus2=p5ulv40224.1.2 switch=n enabled=y phases=2 Linecode=1P_UG_AL_1/0_Brenau_0_416_0_2_2_2_2

New Line.l(r:p5udm22093-p5udm22097) Units=km Length=0.00931075 bus1=p5udm22097.1.2 bus2=p5udm22093.1.2 switch=n enabled=y phases=2 Linecode=1P_UG_AL_4/0_Sweetbriar_0_416_0_2_2_2_2

New Line.l(r:p5udm22097-p5udt8292lv) Units=km Length=0.00931075 bus1=p5udt8292lv.1.2 bus2=p5udm22097.1.2 switch=n enabled=y phases=2 Linecode=1P_UG_AL_4/0_Sweetbriar_0_416_0_2_2_2_2

New Line.l(r:p5udm22101-p5ulv19701) Units=km Length=0.0178385 bus1=p5udm22101.1.2 bus2=p5ulv19701.1.2 switch=n enabled=y phases=2 Linecode=1P_UG_AL_1/0_Brenau_0_416_0_2_2_2_2

New Line.l(r:p5udm22101-p5ulv34692) Units=km Length=0.015517200000000002 bus1=p5udm22101.1.2 bus2=p5ulv34692.1.2 switch=n enabled=y phases=2 Linecode=1P_UG_AL_1/0_Brenau_0_416_0_2_2_2_2

New Line.l(r:p5udm22101-p5ulv43038) Units=km Length=0.0165572 bus1=p5udm22101.1.2 bus2=p5ulv43038.1.2 switch=n enabled=y phases=2 Linecode=1P_UG_AL_1/0_Brenau_0_416_0_2_2_2_2

New Line.l(r:p5udm22101-p5udt8294lv) Units=km Length=0.00929778 bus1=p5udt8294lv.1.2 bus2=p5udm22101.1.2 switch=n enabled=y phases=2 Linecode=1P_UG_AL_4/0_Sweetbriar_0_416_0_2_2_2_2

New Line.l(r:p5udm22104-p5ulv71090) Units=km Length=0.0118253 bus1=p5udm22104.1.2 bus2=p5ulv71090.1.2 switch=n enabled=y phases=2 Linecode=1P_UG_AL_1/0_Brenau_0_416_0_2_2_2_2

New Line.l(r:p5udm22104-p5udt8294lv) Units=km Length=0.00931134 bus1=p5udt8294lv.1.2 bus2=p5udm22104.1.2 switch=n enabled=y phases=2 Linecode=1P_UG_AL_1/0_Brenau_0_416_0_2_2_2_2

New Line.l(r:p5udm22105-p5ulv19702) Units=km Length=0.0126269 bus1=p5udm22105.1.2 bus2=p5ulv19702.1.2 switch=n enabled=y phases=2 Linecode=1P_OH_AL_2/0_Rucina_0_416_0_2_2_2_2

New Line.l(r:p5udm22105-p5ulv69428) Units=km Length=0.0134185 bus1=p5udm22105.1.2 bus2=p5ulv69428.1.2 switch=n enabled=y phases=2 Linecode=1P_OH_AL_2/0_Rucina_0_416_0_2_2_2_2

New Line.l(r:p5udm22105-p5udt8295lv) Units=km Length=0.011382200000000002 bus1=p5udt8295lv.1.2 bus2=p5udm22105.1.2 switch=n enabled=y phases=2 Linecode=1P_OH_AL_2/0_Rucina_0_416_0_2_2_2_2

New Line.l(r:p5udm22106-p5ulv22415) Units=km Length=0.0131392 bus1=p5udm22106.1.2 bus2=p5ulv22415.1.2 switch=n enabled=y phases=2 Linecode=1P_OH_AL_2/0_Rucina_0_416_0_2_2_2_2

New Line.l(r:p5udm22106-p5udt8295lv) Units=km Length=0.0295138 bus1=p5udt8295lv.1.2 bus2=p5udm22106.1.2 switch=n enabled=y phases=2 Linecode=1P_OH_AL_4/0_Zuzara_0_416_0_2_2_2_2

New Line.l(r:p5udt8306lv-p5ulv48644) Units=km Length=0.0170949 bus1=p5udt8306lv.1.2 bus2=p5ulv48644.1.2 switch=n enabled=y phases=2 Linecode=1P_UG_AL_1/0_Brenau_0_416_0_2_2_2_2

New Line.l(r:p5udm22140-p5ulv19713) Units=km Length=0.0148323 bus1=p5udm22140.1.2 bus2=p5ulv19713.1.2 switch=n enabled=y phases=2 Linecode=1P_UG_AL_1/0_Brenau_0_416_0_2_2_2_2

New Line.l(r:p5udm22140-p5ulv67197) Units=km Length=0.014158000000000002 bus1=p5udm22140.1.2 bus2=p5ulv67197.1.2 switch=n enabled=y phases=2 Linecode=1P_UG_AL_1/0_Brenau_0_416_0_2_2_2_2

New Line.l(r:p5udm22140-p5udt8306lv) Units=km Length=0.0198322 bus1=p5udt8306lv.1.2 bus2=p5udm22140.1.2 switch=n enabled=y phases=2 Linecode=1P_UG_AL_4/0_Sweetbriar_0_416_0_2_2_2_2

New Line.l(r:p5udm22143-p5ulv53159) Units=km Length=0.0138654 bus1=p5udm22143.1.2 bus2=p5ulv53159.1.2 switch=n enabled=y phases=2 Linecode=1P_UG_AL_1/0_Brenau_0_416_0_2_2_2_2

New Line.l(r:p5udm22141-p5ulv20299) Units=km Length=0.0158793 bus1=p5udm22141.1.2 bus2=p5ulv20299.1.2 switch=n enabled=y phases=2 Linecode=1P_UG_AL_1/0_Brenau_0_416_0_2_2_2_2

New Line.l(r:p5udm22141-p5udm22143) Units=km Length=0.0099229 bus1=p5udm22143.1.2 bus2=p5udm22141.1.2 switch=n enabled=y phases=2 Linecode=1P_UG_AL_1/0_Brenau_0_416_0_2_2_2_2

New Line.l(r:p5udm22143-p5udt8306lv) Units=km Length=0.0099229 bus1=p5udt8306lv.1.2 bus2=p5udm22143.1.2 switch=n enabled=y phases=2 Linecode=1P_UG_AL_4/0_Sweetbriar_0_416_0_2_2_2_2

New Line.l(r:p5udt8307lv-p5ulv58211) Units=km Length=0.0149658 bus1=p5udt8307lv.1.2 bus2=p5ulv58211.1.2 switch=n enabled=y phases=2 Linecode=1P_UG_AL_1/0_Brenau_0_416_0_2_2_2_2

New Line.l(r:p5udm22145-p5ulv19714) Units=km Length=0.014141 bus1=p5udm22145.1.2 bus2=p5ulv19714.1.2 switch=n enabled=y phases=2 Linecode=1P_UG_AL_1/0_Brenau_0_416_0_2_2_2_2

New Line.l(r:p5udm22145-p5ulv30334) Units=km Length=0.0164329 bus1=p5udm22145.1.2 bus2=p5ulv30334.1.2 switch=n enabled=y phases=2 Linecode=1P_UG_AL_4/0_Sweetbriar_0_416_0_2_2_2_2

New Line.l(r:p5udm22145-p5udt8307lv) Units=km Length=0.0195015 bus1=p5udt8307lv.1.2 bus2=p5udm22145.1.2 switch=n enabled=y phases=2 Linecode=1P_UG_AL_4/0_Sweetbriar_0_416_0_2_2_2_2

New Line.l(r:p5udm22147-p5ulv44154) Units=km Length=0.012864600000000002 bus1=p5udm22147.1.2 bus2=p5ulv44154.1.2 switch=n enabled=y phases=2 Linecode=1P_UG_AL_1/0_Brenau_0_416_0_2_2_2_2

New Line.l(r:p5udm22147-p5udt8307lv) Units=km Length=0.0453391 bus1=p5udt8307lv.1.2 bus2=p5udm22147.1.2 switch=n enabled=y phases=2 Linecode=1P_UG_AL_1/0_Brenau_0_416_0_2_2_2_2

New Line.l(r:p5udt8310lv-p5ulv19717) Units=km Length=0.0255991 bus1=p5udt8310lv.1.2 bus2=p5ulv19717.1.2 switch=n enabled=y phases=2 Linecode=1P_UG_AL_4/0_Sweetbriar_0_416_0_2_2_2_2

New Line.l(r:p5udt8310lv-p5ulv61603) Units=km Length=0.0253182 bus1=p5udt8310lv.1.2 bus2=p5ulv61603.1.2 switch=n enabled=y phases=2 Linecode=1P_UG_AL_1/0_Brenau_0_416_0_2_2_2_2

New Line.l(r:p5udm22154-p5ulv52625) Units=km Length=0.0208097 bus1=p5udm22154.1.2 bus2=p5ulv52625.1.2 switch=n enabled=y phases=2 Linecode=1P_UG_AL_1/0_Brenau_0_416_0_2_2_2_2

New Line.l(r:p5udm22154-p5udt8310lv) Units=km Length=0.0192123 bus1=p5udt8310lv.1.2 bus2=p5udm22154.1.2 switch=n enabled=y phases=2 Linecode=1P_UG_AL_1/0_Brenau_0_416_0_2_2_2_2

New Line.l(r:p5udm22155-p5ulv54227) Units=km Length=0.017031 bus1=p5udm22155.1.2 bus2=p5ulv54227.1.2 switch=n enabled=y phases=2 Linecode=1P_UG_AL_1/0_Brenau_0_416_0_2_2_2_2

New Line.l(r:p5udm22157-p5ulv69974) Units=km Length=0.0140169 bus1=p5udm22157.1.2 bus2=p5ulv69974.1.2 switch=n enabled=y phases=2 Linecode=1P_UG_AL_1/0_Brenau_0_416_0_2_2_2_2

New Line.l(r:p5udm22155-p5udm22157) Units=km Length=0.018775 bus1=p5udm22155.1.2 bus2=p5udm22157.1.2 switch=n enabled=y phases=2 Linecode=1P_UG_AL_1/0_Brenau_0_416_0_2_2_2_2

New Line.l(r:p5udm22155-p5udt8310lv) Units=km Length=0.0093814 bus1=p5udt8310lv.1.2 bus2=p5udm22155.1.2 switch=n enabled=y phases=2 Linecode=1P_UG_AL_4/0_Sweetbriar_0_416_0_2_2_2_2

New Line.l(r:p5udt8340lv-p5ulv61640) Units=km Length=0.0150662 bus1=p5udt8340lv.1.2 bus2=p5ulv61640.1.2 switch=n enabled=y phases=2 Linecode=1P_UG_AL_1/0_Brenau_0_416_0_2_2_2_2

New Line.l(r:p5udm22270-p5ulv19748) Units=km Length=0.017320000000000002 bus1=p5udm22270.1.2 bus2=p5ulv19748.1.2 switch=n enabled=y phases=2 Linecode=1P_UG_AL_1/0_Brenau_0_416_0_2_2_2_2

New Line.l(r:p5udm22271-p5ulv28142) Units=km Length=0.0148022 bus1=p5udm22271.1.2 bus2=p5ulv28142.1.2 switch=n enabled=y phases=2 Linecode=1P_UG_AL_1/0_Brenau_0_416_0_2_2_2_2

New Line.l(r:p5udm22270-p5udm22271) Units=km Length=0.00957413 bus1=p5udm22270.1.2 bus2=p5udm22271.1.2 switch=n enabled=y phases=2 Linecode=1P_UG_AL_1/0_Brenau_0_416_0_2_2_2_2

New Line.l(r:p5udm22270-p5udt8340lv) Units=km Length=0.00958245 bus1=p5udt8340lv.1.2 bus2=p5udm22270.1.2 switch=n enabled=y phases=2 Linecode=1P_UG_AL_4/0_Sweetbriar_0_416_0_2_2_2_2

New Line.l(r:p5udm22272-p5ulv45330) Units=km Length=0.012610700000000002 bus1=p5udm22272.1.2 bus2=p5ulv45330.1.2 switch=n enabled=y phases=2 Linecode=1P_UG_AL_1/0_Brenau_0_416_0_2_2_2_2

New Line.l(r:p5udm22272-p5udt8340lv) Units=km Length=0.0191483 bus1=p5udt8340lv.1.2 bus2=p5udm22272.1.2 switch=n enabled=y phases=2 Linecode=1P_UG_AL_1/0_Brenau_0_416_0_2_2_2_2

New Line.l(r:p5udt8341lv-p5ulv19749) Units=km Length=0.0156777 bus1=p5udt8341lv.1.2 bus2=p5ulv19749.1.2 switch=n enabled=y phases=2 Linecode=1P_UG_AL_1/0_Brenau_0_416_0_2_2_2_2

New Line.l(r:p5udt8341lv-p5ulv21930) Units=km Length=0.0149524 bus1=p5udt8341lv.1.2 bus2=p5ulv21930.1.2 switch=n enabled=y phases=2 Linecode=1P_UG_AL_1/0_Brenau_0_416_0_2_2_2_2

New Line.l(r:p5udt8341lv-p5ulv72272) Units=km Length=0.0140445 bus1=p5udt8341lv.1.2 bus2=p5ulv72272.1.2 switch=n enabled=y phases=2 Linecode=1P_UG_AL_1/0_Brenau_0_416_0_2_2_2_2

New Line.l(r:p5udm22276-p5ulv61643) Units=km Length=0.014052 bus1=p5udm22276.1.2 bus2=p5ulv61643.1.2 switch=n enabled=y phases=2 Linecode=1P_UG_AL_1/0_Brenau_0_416_0_2_2_2_2

New Line.l(r:p5udm22276-p5udt8341lv) Units=km Length=0.0193995 bus1=p5udt8341lv.1.2 bus2=p5udm22276.1.2 switch=n enabled=y phases=2 Linecode=1P_UG_AL_1/0_Brenau_0_416_0_2_2_2_2

New Line.l(r:p5udt8342lv-p5ulv19750) Units=km Length=0.00824697 bus1=p5udt8342lv.1.2 bus2=p5ulv19750.1.2 switch=n enabled=y phases=2 Linecode=1P_OH_AL_2/0_Rucina_0_416_0_2_2_2_2

New Line.l(r:p5udm22279-p5ulv22488) Units=km Length=0.014454000000000002 bus1=p5udm22279.1.2 bus2=p5ulv22488.1.2 switch=n enabled=y phases=2 Linecode=1P_OH_AL_2/0_Rucina_0_416_0_2_2_2_2

New Line.l(r:p5udm22279-p5udt8342lv) Units=km Length=0.0107909 bus1=p5udt8342lv.1.2 bus2=p5udm22279.1.2 switch=n enabled=y phases=2 Linecode=1P_OH_AL_2/0_Rucina_0_416_0_2_2_2_2

New Line.l(r:p5udm22280-p5ulv40281) Units=km Length=0.0153986 bus1=p5udm22280.1.2 bus2=p5ulv40281.1.2 switch=n enabled=y phases=2 Linecode=1P_OH_AL_2/0_Rucina_0_416_0_2_2_2_2

New Line.l(r:p5udm22280-p5udt8342lv) Units=km Length=0.00693046 bus1=p5udt8342lv.1.2 bus2=p5udm22280.1.2 switch=n enabled=y phases=2 Linecode=1P_OH_AL_2/0_Rucina_0_416_0_2_2_2_2

New Line.l(r:p5udt8811lv-p5ulv20241) Units=km Length=0.0169994 bus1=p5udt8811lv.1.2 bus2=p5ulv20241.1.2 switch=n enabled=y phases=2 Linecode=1P_OH_AL_2/0_Rucina_0_416_0_2_2_2_2

New Line.l(r:p5udt8811lv-p5ulv49157) Units=km Length=0.0158392 bus1=p5udt8811lv.1.2 bus2=p5ulv49157.1.2 switch=n enabled=y phases=2 Linecode=1P_OH_AL_2/0_Rucina_0_416_0_2_2_2_2

New Line.l(r:p5udt8811lv-p5ulv73857) Units=km Length=0.0153451 bus1=p5udt8811lv.1.2 bus2=p5ulv73857.1.2 switch=n enabled=y phases=2 Linecode=1P_OH_AL_2/0_Rucina_0_416_0_2_2_2_2

New Line.l(r:p5udm23770-p5ulv35800) Units=km Length=0.014932300000000003 bus1=p5udm23770.1.2 bus2=p5ulv35800.1.2 switch=n enabled=y phases=2 Linecode=1P_OH_AL_2/0_Rucina_0_416_0_2_2_2_2

New Line.l(r:p5udm23770-p5ulv61584) Units=km Length=0.0205492 bus1=p5udm23770.1.2 bus2=p5ulv61584.1.2 switch=n enabled=y phases=2 Linecode=1P_OH_AL_2/0_Rucina_0_416_0_2_2_2_2

New Line.l(r:p5udm23770-p5udt8811lv) Units=km Length=0.0198418 bus1=p5udt8811lv.1.2 bus2=p5udm23770.1.2 switch=n enabled=y phases=2 Linecode=1P_OH_AL_2/0_Rucina_0_416_0_2_2_2_2

New Line.l(r:p5udm23773-p5ulv63305) Units=km Length=0.0171821 bus1=p5udm23773.1.2 bus2=p5ulv63305.1.2 switch=n enabled=y phases=2 Linecode=1P_OH_AL_2/0_Rucina_0_416_0_2_2_2_2

New Line.l(r:p5udm23773-p5udt8811lv) Units=km Length=0.0971189 bus1=p5udt8811lv.1.2 bus2=p5udm23773.1.2 switch=n enabled=y phases=2 Linecode=1P_OH_AL_4/0_Zuzara_0_416_0_2_2_2_2

New Line.l(r:p5udt8812lv-p5ulv20242) Units=km Length=0.0172126 bus1=p5udt8812lv.1.2 bus2=p5ulv20242.1.2 switch=n enabled=y phases=2 Linecode=1P_OH_AL_2/0_Rucina_0_416_0_2_2_2_2

New Line.l(r:p5udt8812lv-p5ulv34143) Units=km Length=0.0156939 bus1=p5udt8812lv.1.2 bus2=p5ulv34143.1.2 switch=n enabled=y phases=2 Linecode=1P_OH_AL_2/0_Rucina_0_416_0_2_2_2_2

New Line.l(r:p5udt8812lv-p5ulv52015) Units=km Length=0.0170578 bus1=p5udt8812lv.1.2 bus2=p5ulv52015.1.2 switch=n enabled=y phases=2 Linecode=1P_OH_AL_2/0_Rucina_0_416_0_2_2_2_2

New Line.l(r:p5udm23777-p5ulv46946) Units=km Length=0.0434552 bus1=p5udm23777.1.2 bus2=p5ulv46946.1.2 switch=n enabled=y phases=2 Linecode=1P_OH_AL_4/0_Zuzara_0_416_0_2_2_2_2

New Line.l(r:p5udm23777-p5udt8812lv) Units=km Length=0.0198418 bus1=p5udt8812lv.1.2 bus2=p5udm23777.1.2 switch=n enabled=y phases=2 Linecode=1P_OH_AL_2/0_Rucina_0_416_0_2_2_2_2

New Line.l(r:p5udm23778-p5ulv50300) Units=km Length=0.0171521 bus1=p5udm23778.1.2 bus2=p5ulv50300.1.2 switch=n enabled=y phases=2 Linecode=1P_OH_AL_2/0_Rucina_0_416_0_2_2_2_2

New Line.l(r:p5udm23778-p5udt8812lv) Units=km Length=0.0198418 bus1=p5udt8812lv.1.2 bus2=p5udm23778.1.2 switch=n enabled=y phases=2 Linecode=1P_OH_AL_2/0_Rucina_0_416_0_2_2_2_2

New Line.l(r:p5udt8813lv-p5ulv34145) Units=km Length=0.0154332 bus1=p5udt8813lv.1.2 bus2=p5ulv34145.1.2 switch=n enabled=y phases=2 Linecode=1P_UG_AL_1/0_Brenau_0_416_0_2_2_2_2

New Line.l(r:p5udm23780-p5ulv20243) Units=km Length=0.0238057 bus1=p5udm23780.1.2 bus2=p5ulv20243.1.2 switch=n enabled=y phases=2 Linecode=1P_UG_AL_1/0_Brenau_0_416_0_2_2_2_2

New Line.l(r:p5udm23782-p5ulv30306) Units=km Length=0.014735800000000002 bus1=p5udm23782.1.2 bus2=p5ulv30306.1.2 switch=n enabled=y phases=2 Linecode=1P_UG_AL_1/0_Brenau_0_416_0_2_2_2_2

New Line.l(r:p5udm23782-p5ulv73287) Units=km Length=0.01614 bus1=p5udm23782.1.2 bus2=p5ulv73287.1.2 switch=n enabled=y phases=2 Linecode=1P_UG_AL_1/0_Brenau_0_416_0_2_2_2_2

New Line.l(r:p5udm23780-p5udm23782) Units=km Length=0.00985589 bus1=p5udm23780.1.2 bus2=p5udm23782.1.2 switch=n enabled=y phases=2 Linecode=1P_UG_AL_4/0_Sweetbriar_0_416_0_2_2_2_2

New Line.l(r:p5udm23780-p5udt8813lv) Units=km Length=0.00986471 bus1=p5udt8813lv.1.2 bus2=p5udm23780.1.2 switch=n enabled=y phases=2 Linecode=1P_UG_AL_4/0_Sweetbriar_0_416_0_2_2_2_2

New Line.l(r:p5udm23781-p5ulv25817) Units=km Length=0.0162748 bus1=p5udm23781.1.2 bus2=p5ulv25817.1.2 switch=n enabled=y phases=2 Linecode=1P_UG_AL_1/0_Brenau_0_416_0_2_2_2_2

New Line.l(r:p5udm23781-p5ulv34146) Units=km Length=0.0168204 bus1=p5udm23781.1.2 bus2=p5ulv34146.1.2 switch=n enabled=y phases=2 Linecode=1P_UG_AL_1/0_Brenau_0_416_0_2_2_2_2

New Line.l(r:p5udm23786-p5ulv77204) Units=km Length=0.016086 bus1=p5udm23786.1.2 bus2=p5ulv77204.1.2 switch=n enabled=y phases=2 Linecode=1P_UG_AL_1/0_Brenau_0_416_0_2_2_2_2

New Line.l(r:p5udm23781-p5udm23786) Units=km Length=0.00985589 bus1=p5udm23781.1.2 bus2=p5udm23786.1.2 switch=n enabled=y phases=2 Linecode=1P_UG_AL_1/0_Brenau_0_416_0_2_2_2_2

New Line.l(r:p5udm23781-p5udt8813lv) Units=km Length=0.00986471 bus1=p5udt8813lv.1.2 bus2=p5udm23781.1.2 switch=n enabled=y phases=2 Linecode=1P_UG_AL_4/0_Sweetbriar_0_416_0_2_2_2_2

New Line.l(r:p5udt8815lv-p5ulv20245) Units=km Length=0.0402183 bus1=p5udt8815lv.1.2 bus2=p5ulv20245.1.2 switch=n enabled=y phases=2 Linecode=1P_OH_AL_4/0_Zuzara_0_416_0_2_2_2_2

New Line.l(r:p5udt8826lv-p5ulv46943) Units=km Length=0.0148193 bus1=p5udt8826lv.1.2 bus2=p5ulv46943.1.2 switch=n enabled=y phases=2 Linecode=1P_UG_AL_4/0_Sweetbriar_0_416_0_2_2_2_2

New Line.l(r:p5udt8826lv-p5ulv54222) Units=km Length=0.0153068 bus1=p5udt8826lv.1.2 bus2=p5ulv54222.1.2 switch=n enabled=y phases=2 Linecode=1P_UG_AL_1/0_Brenau_0_416_0_2_2_2_2

New Line.l(r:p5udm23823-p5ulv20257) Units=km Length=0.014725800000000002 bus1=p5udm23823.1.2 bus2=p5ulv20257.1.2 switch=n enabled=y phases=2 Linecode=1P_UG_AL_1/0_Brenau_0_416_0_2_2_2_2

New Line.l(r:p5udm23823-p5udt8826lv) Units=km Length=0.0193198 bus1=p5udt8826lv.1.2 bus2=p5udm23823.1.2 switch=n enabled=y phases=2 Linecode=1P_UG_AL_1/0_Brenau_0_416_0_2_2_2_2

New Line.l(r:p5udm23824-p5ulv22412) Units=km Length=0.0140517 bus1=p5udm23824.1.2 bus2=p5ulv22412.1.2 switch=n enabled=y phases=2 Linecode=1P_UG_AL_1/0_Brenau_0_416_0_2_2_2_2

New Line.l(r:p5udm23824-p5ulv76631) Units=km Length=0.014935600000000002 bus1=p5udm23824.1.2 bus2=p5ulv76631.1.2 switch=n enabled=y phases=2 Linecode=1P_UG_AL_1/0_Brenau_0_416_0_2_2_2_2

New Line.l(r:p5udm23824-p5udt8826lv) Units=km Length=0.0193111 bus1=p5udt8826lv.1.2 bus2=p5udm23824.1.2 switch=n enabled=y phases=2 Linecode=1P_UG_AL_4/0_Sweetbriar_0_416_0_2_2_2_2

New Line.l(r:p5udm23828-p5ulv20258) Units=km Length=0.013698 bus1=p5udm23828.1.2 bus2=p5ulv20258.1.2 switch=n enabled=y phases=2 Linecode=1P_OH_AL_2/0_Rucina_0_416_0_2_2_2_2

New Line.l(r:p5udm23828-p5udt8827lv) Units=km Length=0.0268708 bus1=p5udt8827lv.1.2 bus2=p5udm23828.1.2 switch=n enabled=y phases=2 Linecode=1P_OH_AL_2/0_Rucina_0_416_0_2_2_2_2

New Line.l(r:p5udm23829-p5ulv31952) Units=km Length=0.010459 bus1=p5udm23829.1.2 bus2=p5ulv31952.1.2 switch=n enabled=y phases=2 Linecode=1P_UG_AL_1/0_Brenau_0_416_0_2_2_2_2

New Line.l(r:p5udm23829-p5udt8827lv) Units=km Length=0.019012 bus1=p5udt8827lv.1.2 bus2=p5udm23829.1.2 switch=n enabled=y phases=2 Linecode=1P_UG_AL_1/0_Brenau_0_416_0_2_2_2_2

New Line.l(r:p5udt8828lv-p5ulv20259) Units=km Length=0.0201465 bus1=p5udt8828lv.1.2 bus2=p5ulv20259.1.2 switch=n enabled=y phases=2 Linecode=1P_OH_AL_2/0_Rucina_0_416_0_2_2_2_2

New Line.l(r:p5udt8828lv-p5ulv24146) Units=km Length=0.0233834 bus1=p5udt8828lv.1.2 bus2=p5ulv24146.1.2 switch=n enabled=y phases=2 Linecode=1P_OH_AL_2/0_Rucina_0_416_0_2_2_2_2

New Line.l(r:p5udm23832-p5ulv24702) Units=km Length=0.0192842 bus1=p5udm23832.1.2 bus2=p5ulv24702.1.2 switch=n enabled=y phases=2 Linecode=1P_UG_AL_1/0_Brenau_0_416_0_2_2_2_2

New Line.l(r:p5udm23832-p5udt8828lv) Units=km Length=0.0392579 bus1=p5udt8828lv.1.2 bus2=p5udm23832.1.2 switch=n enabled=y phases=2 Linecode=1P_OH_AL_4/0_Zuzara_0_416_0_2_2_2_2

New Line.l(r:p5udm23833-p5ulv29257) Units=km Length=0.0191343 bus1=p5udm23833.1.2 bus2=p5ulv29257.1.2 switch=n enabled=y phases=2 Linecode=1P_OH_AL_2/0_Rucina_0_416_0_2_2_2_2

New Line.l(r:p5udm23833-p5udt8828lv) Units=km Length=0.019629 bus1=p5udt8828lv.1.2 bus2=p5udm23833.1.2 switch=n enabled=y phases=2 Linecode=1P_OH_AL_2/0_Rucina_0_416_0_2_2_2_2

New Line.l(r:p5udt8829lv-p5ulv40817) Units=km Length=0.012896800000000002 bus1=p5udt8829lv.1.2 bus2=p5ulv40817.1.2 switch=n enabled=y phases=2 Linecode=1P_UG_AL_1/0_Brenau_0_416_0_2_2_2_2

New Line.l(r:p5udm23835-p5ulv29798) Units=km Length=0.0117835 bus1=p5udm23835.1.2 bus2=p5ulv29798.1.2 switch=n enabled=y phases=2 Linecode=1P_UG_AL_1/0_Brenau_0_416_0_2_2_2_2

New Line.l(r:p5udm23835-p5ulv70536) Units=km Length=0.0159809 bus1=p5udm23835.1.2 bus2=p5ulv70536.1.2 switch=n enabled=y phases=2 Linecode=1P_UG_AL_1/0_Brenau_0_416_0_2_2_2_2

New Line.l(r:p5udm23839-p5ulv71109) Units=km Length=0.0164288 bus1=p5udm23839.1.2 bus2=p5ulv71109.1.2 switch=n enabled=y phases=2 Linecode=1P_UG_AL_1/0_Brenau_0_416_0_2_2_2_2

New Line.l(r:p5udm23835-p5udm23839) Units=km Length=0.0096103 bus1=p5udm23835.1.2 bus2=p5udm23839.1.2 switch=n enabled=y phases=2 Linecode=1P_UG_AL_1/0_Brenau_0_416_0_2_2_2_2

New Line.l(r:p5udm23835-p5udt8829lv) Units=km Length=0.009602000000000001 bus1=p5udt8829lv.1.2 bus2=p5udm23835.1.2 switch=n enabled=y phases=2 Linecode=1P_UG_AL_4/0_Sweetbriar_0_416_0_2_2_2_2

New Line.l(r:p5udm23836-p5ulv31426) Units=km Length=0.0184351 bus1=p5udm23836.1.2 bus2=p5ulv31426.1.2 switch=n enabled=y phases=2 Linecode=1P_UG_AL_1/0_Brenau_0_416_0_2_2_2_2

New Line.l(r:p5udm23834-p5ulv20260) Units=km Length=0.0195972 bus1=p5udm23834.1.2 bus2=p5ulv20260.1.2 switch=n enabled=y phases=2 Linecode=1P_UG_AL_1/0_Brenau_0_416_0_2_2_2_2

New Line.l(r:p5udm23834-p5udm23836) Units=km Length=0.019204000000000002 bus1=p5udm23836.1.2 bus2=p5udm23834.1.2 switch=n enabled=y phases=2 Linecode=1P_UG_AL_1/0_Brenau_0_416_0_2_2_2_2

New Line.l(r:p5udm23836-p5udt8829lv) Units=km Length=0.0096103 bus1=p5udt8829lv.1.2 bus2=p5udm23836.1.2 switch=n enabled=y phases=2 Linecode=1P_UG_AL_4/0_Sweetbriar_0_416_0_2_2_2_2

New Line.l(r:p5udt8830lv-p5ulv26918) Units=km Length=0.015118900000000001 bus1=p5udt8830lv.1.2 bus2=p5ulv26918.1.2 switch=n enabled=y phases=2 Linecode=1P_UG_AL_1/0_Brenau_0_416_0_2_2_2_2

New Line.l(r:p5udm23840-p5ulv20261) Units=km Length=0.0154602 bus1=p5udm23840.1.2 bus2=p5ulv20261.1.2 switch=n enabled=y phases=2 Linecode=1P_UG_AL_1/0_Brenau_0_416_0_2_2_2_2

New Line.l(r:p5udm23840-p5udt8830lv) Units=km Length=0.00960675 bus1=p5udt8830lv.1.2 bus2=p5udm23840.1.2 switch=n enabled=y phases=2 Linecode=1P_UG_AL_1/0_Brenau_0_416_0_2_2_2_2

New Line.l(r:p5udm23842-p5ulv45876) Units=km Length=0.0152812 bus1=p5udm23842.1.2 bus2=p5ulv45876.1.2 switch=n enabled=y phases=2 Linecode=1P_UG_AL_1/0_Brenau_0_416_0_2_2_2_2

New Line.l(r:p5udm23842-p5udt8830lv) Units=km Length=0.00959926 bus1=p5udt8830lv.1.2 bus2=p5udm23842.1.2 switch=n enabled=y phases=2 Linecode=1P_UG_AL_1/0_Brenau_0_416_0_2_2_2_2

New Line.l(r:p5udt8831lv-p5ulv20262) Units=km Length=0.016462 bus1=p5udt8831lv.1.2 bus2=p5ulv20262.1.2 switch=n enabled=y phases=2 Linecode=1P_UG_AL_1/0_Brenau_0_416_0_2_2_2_2

New Line.l(r:p5udt8831lv-p5ulv71110) Units=km Length=0.0156659 bus1=p5udt8831lv.1.2 bus2=p5ulv71110.1.2 switch=n enabled=y phases=2 Linecode=1P_UG_AL_1/0_Brenau_0_416_0_2_2_2_2

New Line.l(r:p5udt8832lv-p5ulv46422) Units=km Length=0.0149703 bus1=p5udt8832lv.1.2 bus2=p5ulv46422.1.2 switch=n enabled=y phases=2 Linecode=1P_UG_AL_1/0_Brenau_0_416_0_2_2_2_2

New Line.l(r:p5udm23845-p5ulv20263) Units=km Length=0.0151024 bus1=p5udm23845.1.2 bus2=p5ulv20263.1.2 switch=n enabled=y phases=2 Linecode=1P_UG_AL_1/0_Brenau_0_416_0_2_2_2_2

New Line.l(r:p5udm23845-p5udt8832lv) Units=km Length=0.0094311 bus1=p5udt8832lv.1.2 bus2=p5udm23845.1.2 switch=n enabled=y phases=2 Linecode=1P_UG_AL_1/0_Brenau_0_416_0_2_2_2_2

New Line.l(r:p5udt8833lv-p5ulv20264) Units=km Length=0.0513375 bus1=p5udt8833lv.1.2 bus2=p5ulv20264.1.2 switch=n enabled=y phases=2 Linecode=1P_OH_AL_4/0_Zuzara_0_416_0_2_2_2_2

New Line.l(r:p5udt8833lv-p5ulv28091) Units=km Length=0.06087540000000001 bus1=p5udt8833lv.1.2 bus2=p5ulv28091.1.2 switch=n enabled=y phases=2 Linecode=1P_OH_AL_4/0_Zuzara_0_416_0_2_2_2_2

New Line.l(r:p5udm23926-p5ulv20287) Units=km Length=0.0140975 bus1=p5udm23926.1.2 bus2=p5ulv20287.1.2 switch=n enabled=y phases=2 Linecode=1P_UG_AL_1/0_Brenau_0_416_0_2_2_2_2

New Line.l(r:p5udm23926-p5ulv21377) Units=km Length=0.0157528 bus1=p5udm23926.1.2 bus2=p5ulv21377.1.2 switch=n enabled=y phases=2 Linecode=1P_UG_AL_1/0_Brenau_0_416_0_2_2_2_2

New Line.l(r:p5udm23926-p5udt8856lv) Units=km Length=0.00866556 bus1=p5udt8856lv.1.2 bus2=p5udm23926.1.2 switch=n enabled=y phases=2 Linecode=1P_UG_AL_4/0_Sweetbriar_0_416_0_2_2_2_2

New Line.l(r:p5udm23928-p5ulv46438) Units=km Length=0.0168495 bus1=p5udm23928.1.2 bus2=p5ulv46438.1.2 switch=n enabled=y phases=2 Linecode=1P_UG_AL_1/0_Brenau_0_416_0_2_2_2_2

New Line.l(r:p5udm23928-p5ulv48625) Units=km Length=0.0142871 bus1=p5udm23928.1.2 bus2=p5ulv48625.1.2 switch=n enabled=y phases=2 Linecode=1P_UG_AL_1/0_Brenau_0_416_0_2_2_2_2

New Line.l(r:p5udm23928-p5udt8856lv) Units=km Length=0.008672080000000002 bus1=p5udt8856lv.1.2 bus2=p5udm23928.1.2 switch=n enabled=y phases=2 Linecode=1P_UG_AL_4/0_Sweetbriar_0_416_0_2_2_2_2

New Line.l(r:p5udm25367-p5ulv20783) Units=km Length=0.0117567 bus1=p5udm25367.1.2 bus2=p5ulv20783.1.2 switch=n enabled=y phases=2 Linecode=1P_UG_AL_4/0_Sweetbriar_0_416_0_2_2_2_2

New Line.l(r:p5udm25367-p5ulv67710) Units=km Length=0.0134351 bus1=p5udm25367.1.2 bus2=p5ulv67710.1.2 switch=n enabled=y phases=2 Linecode=1P_UG_AL_1/0_Brenau_0_416_0_2_2_2_2

New Line.l(r:p5udm25370-p5ulv45265) Units=km Length=0.0215128 bus1=p5udm25370.1.2 bus2=p5ulv45265.1.2 switch=n enabled=y phases=2 Linecode=1P_UG_AL_1/0_Brenau_0_416_0_2_2_2_2

New Line.l(r:p5udm25367-p5udm25370) Units=km Length=0.019783600000000002 bus1=p5udm25367.1.2 bus2=p5udm25370.1.2 switch=n enabled=y phases=2 Linecode=1P_UG_AL_1/0_Brenau_0_416_0_2_2_2_2

New Line.l(r:p5udm25367-p5udt9322lv) Units=km Length=0.0098939 bus1=p5udt9322lv.1.2 bus2=p5udm25367.1.2 switch=n enabled=y phases=2 Linecode=1P_UG_AL_4/0_Sweetbriar_0_416_0_2_2_2_2

New Line.l(r:p5udm25368-p5ulv26899) Units=km Length=0.0107233 bus1=p5udm25368.1.2 bus2=p5ulv26899.1.2 switch=n enabled=y phases=2 Linecode=1P_UG_AL_1/0_Brenau_0_416_0_2_2_2_2

New Line.l(r:p5udm25368-p5ulv43031) Units=km Length=0.0108612 bus1=p5udm25368.1.2 bus2=p5ulv43031.1.2 switch=n enabled=y phases=2 Linecode=1P_UG_AL_1/0_Brenau_0_416_0_2_2_2_2

New Line.l(r:p5udm25368-p5udt9322lv) Units=km Length=0.019778900000000002 bus1=p5udt9322lv.1.2 bus2=p5udm25368.1.2 switch=n enabled=y phases=2 Linecode=1P_UG_AL_4/0_Sweetbriar_0_416_0_2_2_2_2

New Line.l(r:p5udt9323lv-p5ulv20784) Units=km Length=0.0164405 bus1=p5udt9323lv.1.2 bus2=p5ulv20784.1.2 switch=n enabled=y phases=2 Linecode=1P_UG_AL_1/0_Brenau_0_416_0_2_2_2_2

New Line.l(r:p5udm25373-p5ulv47458) Units=km Length=0.0127115 bus1=p5udm25373.1.2 bus2=p5ulv47458.1.2 switch=n enabled=y phases=2 Linecode=1P_UG_AL_1/0_Brenau_0_416_0_2_2_2_2

New Line.l(r:p5udm25373-p5udt9323lv) Units=km Length=0.00988032 bus1=p5udt9323lv.1.2 bus2=p5udm25373.1.2 switch=n enabled=y phases=2 Linecode=1P_UG_AL_1/0_Brenau_0_416_0_2_2_2_2

New Line.l(r:p5udm25374-p5ulv53640) Units=km Length=0.0156232 bus1=p5udm25374.1.2 bus2=p5ulv53640.1.2 switch=n enabled=y phases=2 Linecode=1P_UG_AL_1/0_Brenau_0_416_0_2_2_2_2

New Line.l(r:p5udm25374-p5ulv76632) Units=km Length=0.0150481 bus1=p5udm25374.1.2 bus2=p5ulv76632.1.2 switch=n enabled=y phases=2 Linecode=1P_UG_AL_1/0_Brenau_0_416_0_2_2_2_2

New Line.l(r:p5udm25374-p5udt9323lv) Units=km Length=0.00986676 bus1=p5udt9323lv.1.2 bus2=p5udm25374.1.2 switch=n enabled=y phases=2 Linecode=1P_UG_AL_2/0_Converse_0_416_0_2_2_2_2

New Line.l(r:p5udt9338lv-p5ulv20801) Units=km Length=0.0180102 bus1=p5udt9338lv.1.2 bus2=p5ulv20801.1.2 switch=n enabled=y phases=2 Linecode=1P_OH_AL_2/0_Rucina_0_416_0_2_2_2_2

New Line.l(r:p5udm25424-p5ulv27498) Units=km Length=0.0207465 bus1=p5udm25424.1.2 bus2=p5ulv27498.1.2 switch=n enabled=y phases=2 Linecode=1P_OH_AL_2/0_Rucina_0_416_0_2_2_2_2

New Line.l(r:p5udm25424-p5ulv67721) Units=km Length=0.0180893 bus1=p5udm25424.1.2 bus2=p5ulv67721.1.2 switch=n enabled=y phases=2 Linecode=1P_OH_AL_2/0_Rucina_0_416_0_2_2_2_2

New Line.l(r:p5udm25424-p5udt9338lv) Units=km Length=0.016798100000000003 bus1=p5udt9338lv.1.2 bus2=p5udm25424.1.2 switch=n enabled=y phases=2 Linecode=1P_OH_AL_2/0_Rucina_0_416_0_2_2_2_2

New Line.l(r:p5udm25425-p5ulv49740) Units=km Length=0.0177407 bus1=p5udm25425.1.2 bus2=p5ulv49740.1.2 switch=n enabled=y phases=2 Linecode=1P_UG_AL_1/0_Brenau_0_416_0_2_2_2_2

New Line.l(r:p5udm25425-p5udt9338lv) Units=km Length=0.0336011 bus1=p5udt9338lv.1.2 bus2=p5udm25425.1.2 switch=n enabled=y phases=2 Linecode=1P_OH_AL_4/0_Zuzara_0_416_0_2_2_2_2

New Line.l(r:p5udt9340lv-p5ulv20804) Units=km Length=0.0151069 bus1=p5udt9340lv.1.2 bus2=p5ulv20804.1.2 switch=n enabled=y phases=2 Linecode=1P_UG_AL_1/0_Brenau_0_416_0_2_2_2_2

New Line.l(r:p5udt9340lv-p5ulv36945) Units=km Length=0.0151468 bus1=p5udt9340lv.1.2 bus2=p5ulv36945.1.2 switch=n enabled=y phases=2 Linecode=1P_UG_AL_1/0_Brenau_0_416_0_2_2_2_2

New Line.l(r:p5udm25432-p5ulv52622) Units=km Length=0.015285 bus1=p5udm25432.1.2 bus2=p5ulv52622.1.2 switch=n enabled=y phases=2 Linecode=1P_UG_AL_1/0_Brenau_0_416_0_2_2_2_2

New Line.l(r:p5udm25432-p5ulv65529) Units=km Length=0.0144558 bus1=p5udm25432.1.2 bus2=p5ulv65529.1.2 switch=n enabled=y phases=2 Linecode=1P_UG_AL_1/0_Brenau_0_416_0_2_2_2_2

New Line.l(r:p5udm25432-p5udt9340lv) Units=km Length=0.0195381 bus1=p5udt9340lv.1.2 bus2=p5udm25432.1.2 switch=n enabled=y phases=2 Linecode=1P_UG_AL_4/0_Sweetbriar_0_416_0_2_2_2_2

New Line.l(r:p5udm25433-p5ulv61068) Units=km Length=0.0153738 bus1=p5udm25433.1.2 bus2=p5ulv61068.1.2 switch=n enabled=y phases=2 Linecode=1P_UG_AL_1/0_Brenau_0_416_0_2_2_2_2

New Line.l(r:p5udm25433-p5ulv62183) Units=km Length=0.014887300000000001 bus1=p5udm25433.1.2 bus2=p5ulv62183.1.2 switch=n enabled=y phases=2 Linecode=1P_UG_AL_1/0_Brenau_0_416_0_2_2_2_2

New Line.l(r:p5udm25433-p5udt9340lv) Units=km Length=0.0195517 bus1=p5udt9340lv.1.2 bus2=p5udm25433.1.2 switch=n enabled=y phases=2 Linecode=1P_UG_AL_4/0_Sweetbriar_0_416_0_2_2_2_2

New Line.l(r:p5udm25438-p5ulv40818) Units=km Length=0.0169466 bus1=p5udm25438.1.2 bus2=p5ulv40818.1.2 switch=n enabled=y phases=2 Linecode=1P_UG_AL_1/0_Brenau_0_416_0_2_2_2_2

New Line.l(r:p5udm25436-p5ulv20805) Units=km Length=0.0142485 bus1=p5udm25436.1.2 bus2=p5ulv20805.1.2 switch=n enabled=y phases=2 Linecode=1P_UG_AL_1/0_Brenau_0_416_0_2_2_2_2
