Clear

New Circuit.substation_p5uhs4_69 bus1=p5uhs4_69 pu=1.0 basekV=69.0 R1=1e-05 X1=1e-05 R0=1e-05 X0=1e-05

Redirect p5uhs4_1247--p5udt4324/Transformers.dss
Redirect p5uhs4_1247--p5udt2507/Transformers.dss
Redirect p5uhs4_1247--p5udt7236/Transformers.dss
Redirect Transformers.dss
Redirect Regulators.dss
Redirect p5uhs4_1247--p5udt4324/Loads.dss
Redirect p5uhs4_1247--p5udt2507/Loads.dss
Redirect p5uhs4_1247--p5udt7236/Loads.dss
Redirect p5uhs4_1247--p5udt4324/LineCodes.dss
Redirect p5uhs4_1247--p5udt2507/LineCodes.dss
Redirect p5uhs4_1247--p5udt7236/LineCodes.dss
Redirect LineCodes.dss
Redirect p5uhs4_1247--p5udt4324/Lines.dss
Redirect p5uhs4_1247--p5udt2507/Lines.dss
Redirect p5uhs4_1247--p5udt7236/Lines.dss
Redirect Lines.dss
Redirect p5uhs4_1247--p5udt4324/Capacitors.dss
Redirect p5uhs4_1247--p5udt2507/Capacitors.dss

Set Voltagebases=[0.2080002494301389, 0.48, 7.199560000000001, 12.47, 69.0]

Calcvoltagebases

Buscoords Buscoords.dss

Solve