New Line.l(r:p1udm10522-p1ulv3163) Units=km Length=0.0109783 bus1=p1udm10522.1.2 bus2=p1ulv3163.1.2 switch=n enabled=y phases=2 Linecode=1P_OH_AL_2/0_Rucina_0_416_0_2_2_2_2

New Line.l(r:p1udm10522-p1udt2959lv) Units=km Length=0.0180007 bus1=p1udt2959lv.1.2 bus2=p1udm10522.1.2 switch=n enabled=y phases=2 Linecode=1P_OH_AL_2/0_Rucina_0_416_0_2_2_2_2

New Line.l(r:p1udm10523-p1ulv12550) Units=km Length=0.011061 bus1=p1udm10523.1.2 bus2=p1ulv12550.1.2 switch=n enabled=y phases=2 Linecode=1P_OH_AL_2/0_Rucina_0_416_0_2_2_2_2

New Line.l(r:p1udm10523-p1ulv64773) Units=km Length=0.030129800000000005 bus1=p1udm10523.1.2 bus2=p1ulv64773.1.2 switch=n enabled=y phases=2 Linecode=1P_OH_AL_4/0_Zuzara_0_416_0_2_2_2_2

New Line.l(r:p1udm10523-p1udt2959lv) Units=km Length=0.0180084 bus1=p1udt2959lv.1.2 bus2=p1udm10523.1.2 switch=n enabled=y phases=2 Linecode=1P_OH_AL_2/0_Rucina_0_416_0_2_2_2_2

New Line.l(r:p1udt10478lv-p1ulv13787) Units=km Length=0.00670779 bus1=p1udt10478lv.1.2 bus2=p1ulv13787.1.2 switch=n enabled=y phases=2 Linecode=1P_OH_AL_2/0_Rucina_0_416_0_2_2_2_2

New Line.l(r:p1udt19214lv-p1ulv35440) Units=km Length=0.0698476 bus1=p1udt19214lv.1.2 bus2=p1ulv35440.1.2 switch=n enabled=y phases=2 Linecode=1P_OH_AL_4/0_Zuzara_0_416_0_2_2_2_2

New Line.l(r:p1udt23872lv-p1ulv56706) Units=km Length=0.0377813 bus1=p1udt23872lv.1.2 bus2=p1ulv56706.1.2 switch=n enabled=y phases=2 Linecode=1P_OH_AL_4/0_Zuzara_0_416_0_2_2_2_2

New Line.l(r:p1udt2959-p1umv22) Units=km Length=0.600538 bus1=p1udt2959-p1umv22x.2 bus2=p1udt2959.2 switch=n enabled=y phases=1 Linecode=1P_OH_AL_ACSR_#2_Sparrow_12_47_0_1_1_1_1

New Line.l(r:p1udt10478-p1umv22) Units=km Length=0.183125 bus1=p1udt10478-p1umv22x.3 bus2=p1udt10478.3 switch=n enabled=y phases=1 Linecode=1P_OH_AL_ACSR_#2_Sparrow_12_47_0_1_1_1_1

New Line.l(r:p1udt19214-p1udt23872) Units=km Length=0.0364714 bus1=p1udt23872.1 bus2=p1udt19214.1 switch=n enabled=y phases=1 Linecode=1P_OH_AL_ACSR_#2_Sparrow_12_47_0_1_1_1_1

New Line.l(r:p1udt23872-p1umv22) Units=km Length=0.17456200000000002 bus1=p1udt23872-p1umv22x.1 bus2=p1udt23872-p1umv22x_b1_1.1 switch=n enabled=y phases=1 Linecode=1P_OH_AL_ACSR_#2_Sparrow_12_47_0_1_1_1_1

New Line.l(r:p1uhs24_1247-p1umv22) Units=km Length=0.3469 bus1=p1uhs24_1247-p1umv22x.1.2.3 bus2=p1umv22.1.2.3 switch=n enabled=y phases=3 Linecode=3P_OH_AL_ACSR_4/0_Penguin_12_47_0_3_3_3_3

New Line.l(r:p1udt22214-p1umv22) Units=km Length=0.282669 bus1=p1udt22214-p1umv22x.1.2.3 bus2=p1umv22.1.2.3 switch=n enabled=y phases=3 Linecode=3P_OH_AL_ACSR_1033kcmil_Curlew_12.47_1_3_3_3_3

New Line.fuse(r:p1udt2959-p1umv22)p1u_266011 Units=km Length=0.001 bus1=p1umv22.2 bus2=p1udt2959-p1umv22x.2 switch=n enabled=y phases=1 Linecode=fuse_1_1_1_1

New Fuse.Fuse_fuse(r:p1udt2959-p1umv22)p1u_266011 monitoredobj=Line.fuse(r:p1udt2959-p1umv22)p1u_266011 enabled=y ratedcurrent=100.0

New Line.fuse(r:p1udt10478-p1umv22)p1u_266012 Units=km Length=0.001 bus1=p1umv22.3 bus2=p1udt10478-p1umv22x.3 switch=n enabled=y phases=1 Linecode=fuse_1_6_1_1_1

New Fuse.Fuse_fuse(r:p1udt10478-p1umv22)p1u_266012 monitoredobj=Line.fuse(r:p1udt10478-p1umv22)p1u_266012 enabled=y ratedcurrent=100.0

New Line.fuse(r:p1udt23872-p1umv22)p1u_266013 Units=km Length=0.001 bus1=p1umv22.1 bus2=p1udt23872-p1umv22x.1 switch=n enabled=y phases=1 Linecode=fuse_1_6_1_1_1

New Fuse.Fuse_fuse(r:p1udt23872-p1umv22)p1u_266013 monitoredobj=Line.fuse(r:p1udt23872-p1umv22)p1u_266013 enabled=y ratedcurrent=100.0

New Line.l(r:p1udt23872-p1umv22)_disconnect Units=km Length=0.001 bus1=p1udt23872-p1umv22x_b1_1.1 bus2=p1udt23872-p1umv22x_b2_1.1 switch=y enabled=y phases=1 Linecode=1P_OH_AL_ACSR_#2_Sparrow_12_47_0_1_1_1_1

New Line.l(r:p1udt23872-p1umv22)_cont Units=km Length=1.580058 bus1=p1udt23872-p1umv22x_b2_1.1 bus2=p1udt23872.1 switch=n enabled=y phases=1 Linecode=1P_OH_AL_ACSR_#2_Sparrow_12_47_0_1_1_1_1

