New Load.load_p1ulv3163 conn=wye bus1=p1ulv3163.1.2 kV=0.2080002494301389 Vminpu=0.8 Vmaxpu=1.2 model=1 kW=13.4501 kvar=4.420834083066228 Phases=2

New Load.load_p1ulv12550 conn=wye bus1=p1ulv12550.1.2 kV=0.2080002494301389 Vminpu=0.8 Vmaxpu=1.2 model=1 kW=2.50002 kvar=0.8199411909127153 Phases=2

New Load.load_p1ulv13787 conn=wye bus1=p1ulv13787.1.2 kV=0.2080002494301389 Vminpu=0.8 Vmaxpu=1.2 model=1 kW=3.47003 kvar=1.1405437054938103 Phases=2

New Load.load_p1umv22 conn=wye bus1=p1umv22.1.2.3 kV=12.47 Vminpu=0.8 Vmaxpu=1.2 model=1 kW=2230.56 kvar=733.149617647765 Phases=3

New Load.load_p1ulv35440 conn=wye bus1=p1ulv35440.1.2 kV=0.2080002494301389 Vminpu=0.8 Vmaxpu=1.2 model=1 kW=4.10004 kvar=0.8304008874096844 Phases=2

New Load.load_p1ulv56706 conn=wye bus1=p1ulv56706.1.2 kV=0.2080002494301389 Vminpu=0.8 Vmaxpu=1.2 model=1 kW=7.16007 kvar=1.4501635305790819 Phases=2

New Load.load_p1ulv64773 conn=wye bus1=p1ulv64773.1.2 kV=0.2080002494301389 Vminpu=0.8 Vmaxpu=1.2 model=1 kW=5.23005 kvar=1.720889503775713 Phases=2

