New Line.l(r:p1rdm3-p1rlv2) Units=km Length=0.0444216 bus1=p1rdm3.1.2 bus2=p1rlv2.1.2 switch=n enabled=y phases=2 Linecode=1P_OH_AL_4/0_Zuzara_0_416_0_2_2_2_2_2_2_2_2_2_2_2_2_2_2_2_2_2_2_2_2_2_2_2_2_2_2_2_2_2

New Line.l(r:p1rdm3-p1rdt1lv) Units=km Length=0.0129386 bus1=p1rdt1lv.1.2 bus2=p1rdm3.1.2 switch=n enabled=y phases=2 Linecode=1P_OH_AL_2/0_Rucina_0_416_0_2_2_2_2_2_2_2_2_2_2_2_2_2_2_2_2_2_2_2_2_2_2_2_2_2_2_2_2_2

New Line.l(r:p1rdm4-p1rlv11508) Units=km Length=0.0125058 bus1=p1rdm4.1.2 bus2=p1rlv11508.1.2 switch=n enabled=y phases=2 Linecode=1P_OH_AL_2/0_Rucina_0_416_0_2_2_2_2_2_2_2_2_2_2_2_2_2_2_2_2_2_2_2_2_2_2_2_2_2_2_2_2_2

New Line.l(r:p1rdm4-p1rdt1lv) Units=km Length=0.0271779 bus1=p1rdt1lv.1.2 bus2=p1rdm4.1.2 switch=n enabled=y phases=2 Linecode=1P_OH_AL_4/0_Zuzara_0_416_0_2_2_2_2_2_2_2_2_2_2_2_2_2_2_2_2_2_2_2_2_2_2_2_2_2_2_2_2_2

New Line.l(r:p1rdt3lv-p1rlv4) Units=km Length=0.001 bus1=p1rdt3lv.1.2 bus2=p1rlv4.1.2 switch=n enabled=y phases=2 Linecode=1P_OH_AL_4_Periwinkle_0_416_0_2_2_2_2_2_2_2_2_2_2_2_2_2_2_2_2_2_2_2_2_2_2_2_2_2_2_2_2_2

New Line.l(r:p1rdt4lv-p1rlv5) Units=km Length=0.0194254 bus1=p1rdt4lv.1.2 bus2=p1rlv5.1.2 switch=n enabled=y phases=2 Linecode=1P_OH_AL_2/0_Rucina_0_416_0_2_2_2_2_2_2_2_2_2_2_2_2_2_2_2_2_2_2_2_2_2_2_2_2_2_2_2_2_2

New Line.l(r:p1rdt4lv-p1rlv665) Units=km Length=0.0194254 bus1=p1rdt4lv.1.2 bus2=p1rlv665.1.2 switch=n enabled=y phases=2 Linecode=1P_OH_AL_2/0_Rucina_0_416_0_2_2_2_2_2_2_2_2_2_2_2_2_2_2_2_2_2_2_2_2_2_2_2_2_2_2_2_2_2

New Line.l(r:p1rdm10-p1rlv6) Units=km Length=0.0284894 bus1=p1rdm10.1.2 bus2=p1rlv6.1.2 switch=n enabled=y phases=2 Linecode=1P_OH_AL_4/0_Zuzara_0_416_0_2_2_2_2_2_2_2_2_2_2_2_2_2_2_2_2_2_2_2_2_2_2_2_2_2_2_2_2_2

New Line.l(r:p1rdm10-p1rdt5lv) Units=km Length=0.0377913 bus1=p1rdt5lv.1.2 bus2=p1rdm10.1.2 switch=n enabled=y phases=2 Linecode=1P_OH_AL_4/0_Zuzara_0_416_0_2_2_2_2_2_2_2_2_2_2_2_2_2_2_2_2_2_2_2_2_2_2_2_2_2_2_2_2_2

New Line.l(r:p1rdm11-p1rlv3081) Units=km Length=0.033704000000000005 bus1=p1rdm11.1.2 bus2=p1rlv3081.1.2 switch=n enabled=y phases=2 Linecode=1P_OH_AL_4/0_Zuzara_0_416_0_2_2_2_2_2_2_2_2_2_2_2_2_2_2_2_2_2_2_2_2_2_2_2_2_2_2_2_2_2

New Line.l(r:p1rdm11-p1rdt5lv) Units=km Length=0.0188969 bus1=p1rdt5lv.1.2 bus2=p1rdm11.1.2 switch=n enabled=y phases=2 Linecode=1P_OH_AL_2/0_Rucina_0_416_0_2_2_2_2_2_2_2_2_2_2_2_2_2_2_2_2_2_2_2_2_2_2_2_2_2_2_2_2_2

New Line.l(r:p1rdm306-p1rlv129) Units=km Length=0.0329005 bus1=p1rdm306.1.2 bus2=p1rlv129.1.2 switch=n enabled=y phases=2 Linecode=1P_OH_AL_4/0_Zuzara_0_416_0_2_2_2_2_2_2_2_2_2_2_2_2_2_2_2_2_2_2_2_2_2_2_2_2_2_2_2_2_2

New Line.l(r:p1rdm306-p1rdt125lv) Units=km Length=0.0197904 bus1=p1rdt125lv.1.2 bus2=p1rdm306.1.2 switch=n enabled=y phases=2 Linecode=1P_OH_AL_2/0_Rucina_0_416_0_2_2_2_2_2_2_2_2_2_2_2_2_2_2_2_2_2_2_2_2_2_2_2_2_2_2_2_2_2

New Line.l(r:p1rdm307-p1rlv4727) Units=km Length=0.0418665 bus1=p1rdm307.1.2 bus2=p1rlv4727.1.2 switch=n enabled=y phases=2 Linecode=1P_OH_AL_4/0_Zuzara_0_416_0_2_2_2_2_2_2_2_2_2_2_2_2_2_2_2_2_2_2_2_2_2_2_2_2_2_2_2_2_2

New Line.l(r:p1rdm307-p1rdt125lv) Units=km Length=0.0197904 bus1=p1rdt125lv.1.2 bus2=p1rdm307.1.2 switch=n enabled=y phases=2 Linecode=1P_OH_AL_2/0_Rucina_0_416_0_2_2_2_2_2_2_2_2_2_2_2_2_2_2_2_2_2_2_2_2_2_2_2_2_2_2_2_2_2

New Line.l(r:p1rdt260lv-p1rlv267) Units=km Length=0.06904510000000001 bus1=p1rdt260lv.1.2 bus2=p1rlv267.1.2 switch=n enabled=y phases=2 Linecode=1P_OH_AL_4/0_Zuzara_0_416_0_2_2_2_2_2_2_2_2_2_2_2_2_2_2_2_2_2_2_2_2_2_2_2_2_2_2_2_2_2

New Line.l(r:p1rdt260lv-p1rlv13771) Units=km Length=0.06904510000000001 bus1=p1rdt260lv.1.2 bus2=p1rlv13771.1.2 switch=n enabled=y phases=2 Linecode=1P_OH_AL_4/0_Zuzara_0_416_0_2_2_2_2_2_2_2_2_2_2_2_2_2_2_2_2_2_2_2_2_2_2_2_2_2_2_2_2_2

New Line.l(r:p1rdt383lv-p1rlv392) Units=km Length=0.0553715 bus1=p1rdt383lv.1.2 bus2=p1rlv392.1.2 switch=n enabled=y phases=2 Linecode=1P_OH_AL_4/0_Zuzara_0_416_0_2_2_2_2_2_2_2_2_2_2_2_2_2_2_2_2_2_2_2_2_2_2_2_2_2_2_2_2_2

New Line.l(r:p1rdm908-p1rlv6059) Units=km Length=0.0615103 bus1=p1rdm908.1.2 bus2=p1rlv6059.1.2 switch=n enabled=y phases=2 Linecode=1P_OH_AL_4/0_Zuzara_0_416_0_2_2_2_2_2_2_2_2_2_2_2_2_2_2_2_2_2_2_2_2_2_2_2_2_2_2_2_2_2

New Line.l(r:p1rdm908-p1rdt383lv) Units=km Length=0.0194735 bus1=p1rdt383lv.1.2 bus2=p1rdm908.1.2 switch=n enabled=y phases=2 Linecode=1P_OH_AL_2/0_Rucina_0_416_0_2_2_2_2_2_2_2_2_2_2_2_2_2_2_2_2_2_2_2_2_2_2_2_2_2_2_2_2_2

New Line.l(r:p1rdt385lv-p1rlv394) Units=km Length=0.001 bus1=p1rdt385lv.1.2 bus2=p1rlv394.1.2 switch=n enabled=y phases=2 Linecode=1P_OH_AL_4_Periwinkle_0_416_0_2_2_2_2_2_2_2_2_2_2_2_2_2_2_2_2_2_2_2_2_2_2_2_2_2_2_2_2_2

New Line.l(r:p1rdm912-p1rlv395) Units=km Length=0.0269259 bus1=p1rdm912.1.2 bus2=p1rlv395.1.2 switch=n enabled=y phases=2 Linecode=1P_OH_AL_2/0_Rucina_0_416_0_2_2_2_2_2_2_2_2_2_2_2_2_2_2_2_2_2_2_2_2_2_2_2_2_2_2_2_2_2

New Line.l(r:p1rdm912-p1rdt386lv) Units=km Length=0.0192081 bus1=p1rdt386lv.1.2 bus2=p1rdm912.1.2 switch=n enabled=y phases=2 Linecode=1P_OH_AL_2/0_Rucina_0_416_0_2_2_2_2_2_2_2_2_2_2_2_2_2_2_2_2_2_2_2_2_2_2_2_2_2_2_2_2_2

New Line.l(r:p1rdm913-p1rlv7343) Units=km Length=0.0582582 bus1=p1rdm913.1.2 bus2=p1rlv7343.1.2 switch=n enabled=y phases=2 Linecode=1P_OH_AL_4/0_Zuzara_0_416_0_2_2_2_2_2_2_2_2_2_2_2_2_2_2_2_2_2_2_2_2_2_2_2_2_2_2_2_2_2

New Line.l(r:p1rdm913-p1rdt386lv) Units=km Length=0.0169883 bus1=p1rdt386lv.1.2 bus2=p1rdm913.1.2 switch=n enabled=y phases=2 Linecode=1P_OH_AL_2/0_Rucina_0_416_0_2_2_2_2_2_2_2_2_2_2_2_2_2_2_2_2_2_2_2_2_2_2_2_2_2_2_2_2_2

New Line.l(r:p1rdt512lv-p1rlv525) Units=km Length=0.0443654 bus1=p1rdt512lv.1.2 bus2=p1rlv525.1.2 switch=n enabled=y phases=2 Linecode=1P_OH_AL_4/0_Zuzara_0_416_0_2_2_2_2_2_2_2_2_2_2_2_2_2_2_2_2_2_2_2_2_2_2_2_2_2_2_2_2_2

New Line.l(r:p1rdt512lv-p1rlv2014) Units=km Length=0.0125988 bus1=p1rdt512lv.1.2 bus2=p1rlv2014.1.2 switch=n enabled=y phases=2 Linecode=1P_OH_AL_2/0_Rucina_0_416_0_2_2_2_2_2_2_2_2_2_2_2_2_2_2_2_2_2_2_2_2_2_2_2_2_2_2_2_2_2

New Line.l(r:p1rdt512lv-p1rlv11666) Units=km Length=0.0323662 bus1=p1rdt512lv.1.2 bus2=p1rlv11666.1.2 switch=n enabled=y phases=2 Linecode=1P_OH_AL_4/0_Zuzara_0_416_0_2_2_2_2_2_2_2_2_2_2_2_2_2_2_2_2_2_2_2_2_2_2_2_2_2_2_2_2_2

New Line.l(r:p1rdt513lv-p1rlv526) Units=km Length=0.0559212 bus1=p1rdt513lv.1.2 bus2=p1rlv526.1.2 switch=n enabled=y phases=2 Linecode=1P_OH_AL_4/0_Zuzara_0_416_0_2_2_2_2_2_2_2_2_2_2_2_2_2_2_2_2_2_2_2_2_2_2_2_2_2_2_2_2_2

New Line.l(r:p1rdt645lv-p1rlv667) Units=km Length=0.104212 bus1=p1rdt645lv.1.2 bus2=p1rlv667.1.2 switch=n enabled=y phases=2 Linecode=1P_OH_AL_4/0_Zuzara_0_416_0_2_2_2_2_2_2_2_2_2_2_2_2_2_2_2_2_2_2_2_2_2_2_2_2_2_2_2_2_2

New Line.l(r:p1rdt645lv-p1rlv11513) Units=km Length=0.0724187 bus1=p1rdt645lv.1.2 bus2=p1rlv11513.1.2 switch=n enabled=y phases=2 Linecode=1P_OH_AL_4/0_Zuzara_0_416_0_2_2_2_2_2_2_2_2_2_2_2_2_2_2_2_2_2_2_2_2_2_2_2_2_2_2_2_2_2

New Line.l(r:p1rdt646lv-p1rlv668) Units=km Length=0.0143795 bus1=p1rdt646lv.1.2 bus2=p1rlv668.1.2 switch=n enabled=y phases=2 Linecode=1P_OH_AL_2/0_Rucina_0_416_0_2_2_2_2_2_2_2_2_2_2_2_2_2_2_2_2_2_2_2_2_2_2_2_2_2_2_2_2_2

New Line.l(r:p1rdt646lv-p1rlv2835) Units=km Length=0.0240259 bus1=p1rdt646lv.1.2 bus2=p1rlv2835.1.2 switch=n enabled=y phases=2 Linecode=1P_OH_AL_2/0_Rucina_0_416_0_2_2_2_2_2_2_2_2_2_2_2_2_2_2_2_2_2_2_2_2_2_2_2_2_2_2_2_2_2

New Line.l(r:p1rdt646lv-p1rlv10821) Units=km Length=0.0275101 bus1=p1rdt646lv.1.2 bus2=p1rlv10821.1.2 switch=n enabled=y phases=2 Linecode=1P_OH_AL_4/0_Zuzara_0_416_0_2_2_2_2_2_2_2_2_2_2_2_2_2_2_2_2_2_2_2_2_2_2_2_2_2_2_2_2_2

New Line.l(r:p1rdt792lv-p1rlv827) Units=km Length=0.0224006 bus1=p1rdt792lv.1.2 bus2=p1rlv827.1.2 switch=n enabled=y phases=2 Linecode=1P_OH_AL_2/0_Rucina_0_416_0_2_2_2_2_2_2_2_2_2_2_2_2_2_2_2_2_2_2_2_2_2_2_2_2_2_2_2_2_2

New Line.l(r:p1rdt792lv-p1rlv13002) Units=km Length=0.030403600000000003 bus1=p1rdt792lv.1.2 bus2=p1rlv13002.1.2 switch=n enabled=y phases=2 Linecode=1P_OH_AL_4/0_Zuzara_0_416_0_2_2_2_2_2_2_2_2_2_2_2_2_2_2_2_2_2_2_2_2_2_2_2_2_2_2_2_2_2

New Line.l(r:p1rdm1814-p1rlv832) Units=km Length=0.00395285 bus1=p1rdm1814.1.2 bus2=p1rlv832.1.2 switch=n enabled=y phases=2 Linecode=1P_OH_AL_4_Periwinkle_0_416_0_2_2_2_2_2_2_2_2_2_2_2_2_2_2_2_2_2_2_2_2_2_2_2_2_2_2_2_2_2

New Line.l(r:p1rdm1814-p1rdt797lv) Units=km Length=0.0101798 bus1=p1rdt797lv.1.2 bus2=p1rdm1814.1.2 switch=n enabled=y phases=2 Linecode=1P_OH_AL_2/0_Rucina_0_416_0_2_2_2_2_2_2_2_2_2_2_2_2_2_2_2_2_2_2_2_2_2_2_2_2_2_2_2_2_2

New Line.l(r:p1rdm1815-p1rlv9333) Units=km Length=0.00632282 bus1=p1rdm1815.1.2 bus2=p1rlv9333.1.2 switch=n enabled=y phases=2 Linecode=1P_OH_AL_2/0_Rucina_0_416_0_2_2_2_2_2_2_2_2_2_2_2_2_2_2_2_2_2_2_2_2_2_2_2_2_2_2_2_2_2

New Line.l(r:p1rdm1815-p1rdt797lv) Units=km Length=0.0213638 bus1=p1rdt797lv.1.2 bus2=p1rdm1815.1.2 switch=n enabled=y phases=2 Linecode=1P_OH_AL_2/0_Rucina_0_416_0_2_2_2_2_2_2_2_2_2_2_2_2_2_2_2_2_2_2_2_2_2_2_2_2_2_2_2_2_2

New Line.l(r:p1rdt912lv-p1rlv958) Units=km Length=0.09062990000000001 bus1=p1rdt912lv.1.2 bus2=p1rlv958.1.2 switch=n enabled=y phases=2 Linecode=1P_OH_AL_4/0_Zuzara_0_416_0_2_2_2_2_2_2_2_2_2_2_2_2_2_2_2_2_2_2_2_2_2_2_2_2_2_2_2_2_2

New Line.l(r:p1rdt1024lv-p1rlv1081) Units=km Length=0.0104432 bus1=p1rdt1024lv.1.2 bus2=p1rlv1081.1.2 switch=n enabled=y phases=2 Linecode=1P_OH_AL_2/0_Rucina_0_416_0_2_2_2_2_2_2_2_2_2_2_2_2_2_2_2_2_2_2_2_2_2_2_2_2_2_2_2_2_2

New Line.l(r:p1rdt1142lv-p1rlv1208) Units=km Length=0.0328918 bus1=p1rdt1142lv.1.2 bus2=p1rlv1208.1.2 switch=n enabled=y phases=2 Linecode=1P_OH_AL_4/0_Zuzara_0_416_0_2_2_2_2_2_2_2_2_2_2_2_2_2_2_2_2_2_2_2_2_2_2_2_2_2_2_2_2_2

New Line.l(r:p1rdt1142lv-p1rlv4439) Units=km Length=0.049780000000000005 bus1=p1rdt1142lv.1.2 bus2=p1rlv4439.1.2 switch=n enabled=y phases=2 Linecode=1P_OH_AL_4/0_Zuzara_0_416_0_2_2_2_2_2_2_2_2_2_2_2_2_2_2_2_2_2_2_2_2_2_2_2_2_2_2_2_2_2

New Line.l(r:p1rdt1147lv-p1rlv1213) Units=km Length=0.0563944 bus1=p1rdt1147lv.1.2 bus2=p1rlv1213.1.2 switch=n enabled=y phases=2 Linecode=1P_OH_AL_4/0_Zuzara_0_416_0_2_2_2_2_2_2_2_2_2_2_2_2_2_2_2_2_2_2_2_2_2_2_2_2_2_2_2_2_2

New Line.l(r:p1rdt1260lv-p1rlv1341) Units=km Length=0.0867415 bus1=p1rdt1260lv.1.2 bus2=p1rlv1341.1.2 switch=n enabled=y phases=2 Linecode=1P_OH_AL_4/0_Zuzara_0_416_0_2_2_2_2_2_2_2_2_2_2_2_2_2_2_2_2_2_2_2_2_2_2_2_2_2_2_2_2_2

New Line.l(r:p1rdt1260lv-p1rlv11514) Units=km Length=0.05733 bus1=p1rdt1260lv.1.2 bus2=p1rlv11514.1.2 switch=n enabled=y phases=2 Linecode=1P_OH_AL_4/0_Zuzara_0_416_0_2_2_2_2_2_2_2_2_2_2_2_2_2_2_2_2_2_2_2_2_2_2_2_2_2_2_2_2_2

New Line.l(r:p1rdm2802-p1rlv9073) Units=km Length=0.145459 bus1=p1rdm2802.1.2 bus2=p1rlv9073.1.2 switch=n enabled=y phases=2 Linecode=1P_OH_AL_4/0_Zuzara_0_416_0_2_2_2_2_2_2_2_2_2_2_2_2_2_2_2_2_2_2_2_2_2_2_2_2_2_2_2_2_2

New Line.l(r:p1rdm2802-p1rdt1260lv) Units=km Length=0.0162901 bus1=p1rdt1260lv.1.2 bus2=p1rdm2802.1.2 switch=n enabled=y phases=2 Linecode=1P_OH_AL_2/0_Rucina_0_416_0_2_2_2_2_2_2_2_2_2_2_2_2_2_2_2_2_2_2_2_2_2_2_2_2_2_2_2_2_2

New Line.l(r:p1rdm2808-p1rlv1345) Units=km Length=0.0116364 bus1=p1rdm2808.1.2 bus2=p1rlv1345.1.2 switch=n enabled=y phases=2 Linecode=1P_OH_AL_2/0_Rucina_0_416_0_2_2_2_2_2_2_2_2_2_2_2_2_2_2_2_2_2_2_2_2_2_2_2_2_2_2_2_2_2

New Line.l(r:p1rdm2808-p1rlv2149) Units=km Length=0.0099331 bus1=p1rdm2808.1.2 bus2=p1rlv2149.1.2 switch=n enabled=y phases=2 Linecode=1P_OH_AL_2/0_Rucina_0_416_0_2_2_2_2_2_2_2_2_2_2_2_2_2_2_2_2_2_2_2_2_2_2_2_2_2_2_2_2_2

New Line.l(r:p1rdm2808-p1rdt1264lv) Units=km Length=0.022461300000000003 bus1=p1rdt1264lv.1.2 bus2=p1rdm2808.1.2 switch=n enabled=y phases=2 Linecode=1P_OH_AL_2/0_Rucina_0_416_0_2_2_2_2_2_2_2_2_2_2_2_2_2_2_2_2_2_2_2_2_2_2_2_2_2_2_2_2_2

New Line.l(r:p1rdm2810-p1rlv2955) Units=km Length=0.00550027 bus1=p1rdm2810.1.2 bus2=p1rlv2955.1.2 switch=n enabled=y phases=2 Linecode=1P_OH_AL_2/0_Rucina_0_416_0_2_2_2_2_2_2_2_2_2_2_2_2_2_2_2_2_2_2_2_2_2_2_2_2_2_2_2_2_2

New Line.l(r:p1rdm2810-p1rdt1264lv) Units=km Length=0.0714033 bus1=p1rdt1264lv.1.2 bus2=p1rdm2810.1.2 switch=n enabled=y phases=2 Linecode=1P_OH_AL_4/0_Zuzara_0_416_0_2_2_2_2_2_2_2_2_2_2_2_2_2_2_2_2_2_2_2_2_2_2_2_2_2_2_2_2_2

New Line.l(r:p1rdm2811-p1rlv12611) Units=km Length=0.0100134 bus1=p1rdm2811.1.2 bus2=p1rlv12611.1.2 switch=n enabled=y phases=2 Linecode=1P_OH_AL_2/0_Rucina_0_416_0_2_2_2_2_2_2_2_2_2_2_2_2_2_2_2_2_2_2_2_2_2_2_2_2_2_2_2_2_2

New Line.l(r:p1rdm2811-p1rdt1264lv) Units=km Length=0.0333123 bus1=p1rdt1264lv.1.2 bus2=p1rdm2811.1.2 switch=n enabled=y phases=2 Linecode=1P_OH_AL_4/0_Zuzara_0_416_0_2_2_2_2_2_2_2_2_2_2_2_2_2_2_2_2_2_2_2_2_2_2_2_2_2_2_2_2_2

New Line.l(r:p1rdm2812-p1rlv1346) Units=km Length=0.00743006 bus1=p1rdm2812.1.2 bus2=p1rlv1346.1.2 switch=n enabled=y phases=2 Linecode=1P_OH_AL_2/0_Rucina_0_416_0_2_2_2_2_2_2_2_2_2_2_2_2_2_2_2_2_2_2_2_2_2_2_2_2_2_2_2_2_2

New Line.l(r:p1rdm2812-p1rdt1265lv) Units=km Length=0.0383044 bus1=p1rdt1265lv.1.2 bus2=p1rdm2812.1.2 switch=n enabled=y phases=2 Linecode=1P_OH_AL_4/0_Zuzara_0_416_0_2_2_2_2_2_2_2_2_2_2_2_2_2_2_2_2_2_2_2_2_2_2_2_2_2_2_2_2_2

New Line.l(r:p1rdm2813-p1rlv11671) Units=km Length=0.0573502 bus1=p1rdm2813.1.2 bus2=p1rlv11671.1.2 switch=n enabled=y phases=2 Linecode=1P_OH_AL_4/0_Zuzara_0_416_0_2_2_2_2_2_2_2_2_2_2_2_2_2_2_2_2_2_2_2_2_2_2_2_2_2_2_2_2_2

New Line.l(r:p1rdm2813-p1rdt1265lv) Units=km Length=0.0313903 bus1=p1rdt1265lv.1.2 bus2=p1rdm2813.1.2 switch=n enabled=y phases=2 Linecode=1P_OH_AL_4/0_Zuzara_0_416_0_2_2_2_2_2_2_2_2_2_2_2_2_2_2_2_2_2_2_2_2_2_2_2_2_2_2_2_2_2

New Line.l(r:p1rdt1499lv-p1rlv1618) Units=km Length=0.0320813 bus1=p1rdt1499lv.1.2 bus2=p1rlv1618.1.2 switch=n enabled=y phases=2 Linecode=1P_OH_AL_4/0_Zuzara_0_416_0_2_2_2_2_2_2_2_2_2_2_2_2_2_2_2_2_2_2_2_2_2_2_2_2_2_2_2_2_2

New Line.l(r:p1rdt1593lv-p1rlv1731) Units=km Length=0.0154463 bus1=p1rdt1593lv.1.2 bus2=p1rlv1731.1.2 switch=n enabled=y phases=2 Linecode=1P_OH_AL_2/0_Rucina_0_416_0_2_2_2_2_2_2_2_2_2_2_2_2_2_2_2_2_2_2_2_2_2_2_2_2_2_2_2_2_2

New Line.l(r:p1rdm3506-p1rlv2137) Units=km Length=0.0109223 bus1=p1rdm3506.1.2 bus2=p1rlv2137.1.2 switch=n enabled=y phases=2 Linecode=1P_OH_AL_2/0_Rucina_0_416_0_2_2_2_2_2_2_2_2_2_2_2_2_2_2_2_2_2_2_2_2_2_2_2_2_2_2_2_2_2

New Line.l(r:p1rdm3506-p1rdt1593lv) Units=km Length=0.0186288 bus1=p1rdt1593lv.1.2 bus2=p1rdm3506.1.2 switch=n enabled=y phases=2 Linecode=1P_OH_AL_2/0_Rucina_0_416_0_2_2_2_2_2_2_2_2_2_2_2_2_2_2_2_2_2_2_2_2_2_2_2_2_2_2_2_2_2

New Line.l(r:p1rdt1597lv-p1rlv1736) Units=km Length=0.001 bus1=p1rdt1597lv.1.2 bus2=p1rlv1736.1.2 switch=n enabled=y phases=2 Linecode=1P_OH_AL_4_Periwinkle_0_416_0_2_2_2_2_2_2_2_2_2_2_2_2_2_2_2_2_2_2_2_2_2_2_2_2_2_2_2_2_2

New Line.l(r:p1rdt1707lv-p1rlv1869) Units=km Length=0.0635094 bus1=p1rdt1707lv.1.2 bus2=p1rlv1869.1.2 switch=n enabled=y phases=2 Linecode=1P_OH_AL_4/0_Zuzara_0_416_0_2_2_2_2_2_2_2_2_2_2_2_2_2_2_2_2_2_2_2_2_2_2_2_2_2_2_2_2_2

New Line.l(r:p1rdt1707lv-p1rlv12498) Units=km Length=0.0635094 bus1=p1rdt1707lv.1.2 bus2=p1rlv12498.1.2 switch=n enabled=y phases=2 Linecode=1P_OH_AL_4/0_Zuzara_0_416_0_2_2_2_2_2_2_2_2_2_2_2_2_2_2_2_2_2_2_2_2_2_2_2_2_2_2_2_2_2

New Line.l(r:p1rdm3735-p1rlv1870) Units=km Length=0.105667 bus1=p1rdm3735.1.2 bus2=p1rlv1870.1.2 switch=n enabled=y phases=2 Linecode=1P_OH_AL_4/0_Zuzara_0_416_0_2_2_2_2_2_2_2_2_2_2_2_2_2_2_2_2_2_2_2_2_2_2_2_2_2_2_2_2_2

New Line.l(r:p1rdm3735-p1rdt1708lv) Units=km Length=0.0168801 bus1=p1rdt1708lv.1.2 bus2=p1rdm3735.1.2 switch=n enabled=y phases=2 Linecode=1P_OH_AL_2/0_Rucina_0_416_0_2_2_2_2_2_2_2_2_2_2_2_2_2_2_2_2_2_2_2_2_2_2_2_2_2_2_2_2_2

New Line.l(r:p1rdm3736-p1rlv5127) Units=km Length=0.0877874 bus1=p1rdm3736.1.2 bus2=p1rlv5127.1.2 switch=n enabled=y phases=2 Linecode=1P_OH_AL_4/0_Zuzara_0_416_0_2_2_2_2_2_2_2_2_2_2_2_2_2_2_2_2_2_2_2_2_2_2_2_2_2_2_2_2_2

New Line.l(r:p1rdm3736-p1rdt1708lv) Units=km Length=0.0168771 bus1=p1rdt1708lv.1.2 bus2=p1rdm3736.1.2 switch=n enabled=y phases=2 Linecode=1P_OH_AL_2/0_Rucina_0_416_0_2_2_2_2_2_2_2_2_2_2_2_2_2_2_2_2_2_2_2_2_2_2_2_2_2_2_2_2_2

New Line.l(r:p1rdt1709lv-p1rlv1871) Units=km Length=0.0353081 bus1=p1rdt1709lv.1.2 bus2=p1rlv1871.1.2 switch=n enabled=y phases=2 Linecode=1P_OH_AL_4/0_Zuzara_0_416_0_2_2_2_2_2_2_2_2_2_2_2_2_2_2_2_2_2_2_2_2_2_2_2_2_2_2_2_2_2

New Line.l(r:p1rdt1709lv-p1rlv6541) Units=km Length=0.0694525 bus1=p1rdt1709lv.1.2 bus2=p1rlv6541.1.2 switch=n enabled=y phases=2 Linecode=1P_OH_AL_4/0_Zuzara_0_416_0_2_2_2_2_2_2_2_2_2_2_2_2_2_2_2_2_2_2_2_2_2_2_2_2_2_2_2_2_2

New Line.l(r:p1rdt1710lv-p1rlv1872) Units=km Length=0.043655400000000004 bus1=p1rdt1710lv.1.2 bus2=p1rlv1872.1.2 switch=n enabled=y phases=2 Linecode=1P_OH_AL_4/0_Zuzara_0_416_0_2_2_2_2_2_2_2_2_2_2_2_2_2_2_2_2_2_2_2_2_2_2_2_2_2_2_2_2_2

New Line.l(r:p1rdt1710lv-p1rlv8020) Units=km Length=0.043655400000000004 bus1=p1rdt1710lv.1.2 bus2=p1rlv8020.1.2 switch=n enabled=y phases=2 Linecode=1P_OH_AL_4/0_Zuzara_0_416_0_2_2_2_2_2_2_2_2_2_2_2_2_2_2_2_2_2_2_2_2_2_2_2_2_2_2_2_2_2

New Line.l(r:p1rdt1823lv-p1rlv2011) Units=km Length=0.0207987 bus1=p1rdt1823lv.1.2 bus2=p1rlv2011.1.2 switch=n enabled=y phases=2 Linecode=1P_OH_AL_2/0_Rucina_0_416_0_2_2_2_2_2_2_2_2_2_2_2_2_2_2_2_2_2_2_2_2_2_2_2_2_2_2_2_2_2

New Line.l(r:p1rdt1823lv-p1rlv10143) Units=km Length=0.0356353 bus1=p1rdt1823lv.1.2 bus2=p1rlv10143.1.2 switch=n enabled=y phases=2 Linecode=1P_OH_AL_4/0_Zuzara_0_416_0_2_2_2_2_2_2_2_2_2_2_2_2_2_2_2_2_2_2_2_2_2_2_2_2_2_2_2_2_2

New Line.l(r:p1rdt1824lv-p1rlv8019) Units=km Length=0.0815436 bus1=p1rdt1824lv.1.2 bus2=p1rlv8019.1.2 switch=n enabled=y phases=2 Linecode=1P_OH_AL_4/0_Zuzara_0_416_0_2_2_2_2_2_2_2_2_2_2_2_2_2_2_2_2_2_2_2_2_2_2_2_2_2_2_2_2_2

New Line.l(r:p1rdm3964-p1rlv2012) Units=km Length=0.0642583 bus1=p1rdm3964.1.2 bus2=p1rlv2012.1.2 switch=n enabled=y phases=2 Linecode=1P_OH_AL_4/0_Zuzara_0_416_0_2_2_2_2_2_2_2_2_2_2_2_2_2_2_2_2_2_2_2_2_2_2_2_2_2_2_2_2_2

New Line.l(r:p1rdm3965-p1rlv7341) Units=km Length=0.0454782 bus1=p1rdm3965.1.2 bus2=p1rlv7341.1.2 switch=n enabled=y phases=2 Linecode=1P_OH_AL_4/0_Zuzara_0_416_0_2_2_2_2_2_2_2_2_2_2_2_2_2_2_2_2_2_2_2_2_2_2_2_2_2_2_2_2_2

New Line.l(r:p1rdm3964-p1rdm3965) Units=km Length=0.017905 bus1=p1rdm3964.1.2 bus2=p1rdm3965.1.2 switch=n enabled=y phases=2 Linecode=1P_OH_AL_2/0_Rucina_0_416_0_2_2_2_2_2_2_2_2_2_2_2_2_2_2_2_2_2_2_2_2_2_2_2_2_2_2_2_2_2

New Line.l(r:p1rdm3964-p1rdt1824lv) Units=km Length=0.0178955 bus1=p1rdt1824lv.1.2 bus2=p1rdm3964.1.2 switch=n enabled=y phases=2 Linecode=1P_OH_AL_2/0_Rucina_0_416_0_2_2_2_2_2_2_2_2_2_2_2_2_2_2_2_2_2_2_2_2_2_2_2_2_2_2_2_2_2

New Line.l(r:p1rdm3967-p1rlv11382) Units=km Length=0.058265000000000004 bus1=p1rdm3967.1.2 bus2=p1rlv11382.1.2 switch=n enabled=y phases=2 Linecode=1P_OH_AL_4/0_Zuzara_0_416_0_2_2_2_2_2_2_2_2_2_2_2_2_2_2_2_2_2_2_2_2_2_2_2_2_2_2_2_2_2

New Line.l(r:p1rdm3967-p1rdt1824lv) Units=km Length=0.0358005 bus1=p1rdt1824lv.1.2 bus2=p1rdm3967.1.2 switch=n enabled=y phases=2 Linecode=1P_OH_AL_4/0_Zuzara_0_416_0_2_2_2_2_2_2_2_2_2_2_2_2_2_2_2_2_2_2_2_2_2_2_2_2_2_2_2_2_2

New Line.l(r:p1rdt1825lv-p1rlv2013) Units=km Length=0.0470997 bus1=p1rdt1825lv.1.2 bus2=p1rlv2013.1.2 switch=n enabled=y phases=2 Linecode=1P_OH_AL_4/0_Zuzara_0_416_0_2_2_2_2_2_2_2_2_2_2_2_2_2_2_2_2_2_2_2_2_2_2_2_2_2_2_2_2_2

New Line.l(r:p1rdt1825lv-p1rlv7624) Units=km Length=0.0470997 bus1=p1rdt1825lv.1.2 bus2=p1rlv7624.1.2 switch=n enabled=y phases=2 Linecode=1P_OH_AL_4/0_Zuzara_0_416_0_2_2_2_2_2_2_2_2_2_2_2_2_2_2_2_2_2_2_2_2_2_2_2_2_2_2_2_2_2

New Line.l(r:p1rdt1826lv-p1rlv2015) Units=km Length=0.0500553 bus1=p1rdt1826lv.1.2 bus2=p1rlv2015.1.2 switch=n enabled=y phases=2 Linecode=1P_OH_AL_4/0_Zuzara_0_416_0_2_2_2_2_2_2_2_2_2_2_2_2_2_2_2_2_2_2_2_2_2_2_2_2_2_2_2_2_2

New Line.l(r:p1rdt1827lv-p1rlv11667) Units=km Length=0.0661043 bus1=p1rdt1827lv.1.2 bus2=p1rlv11667.1.2 switch=n enabled=y phases=2 Linecode=1P_OH_AL_4/0_Zuzara_0_416_0_2_2_2_2_2_2_2_2_2_2_2_2_2_2_2_2_2_2_2_2_2_2_2_2_2_2_2_2_2

New Line.l(r:p1rdm3971-p1rlv2016) Units=km Length=0.0531458 bus1=p1rdm3971.1.2 bus2=p1rlv2016.1.2 switch=n enabled=y phases=2 Linecode=1P_OH_AL_4/0_Zuzara_0_416_0_2_2_2_2_2_2_2_2_2_2_2_2_2_2_2_2_2_2_2_2_2_2_2_2_2_2_2_2_2

New Line.l(r:p1rdm3971-p1rdt1827lv) Units=km Length=0.0175356 bus1=p1rdt1827lv.1.2 bus2=p1rdm3971.1.2 switch=n enabled=y phases=2 Linecode=1P_OH_AL_2/0_Rucina_0_416_0_2_2_2_2_2_2_2_2_2_2_2_2_2_2_2_2_2_2_2_2_2_2_2_2_2_2_2_2_2

New Line.l(r:p1rdm3973-p1rlv9736) Units=km Length=0.0615276 bus1=p1rdm3973.1.2 bus2=p1rlv9736.1.2 switch=n enabled=y phases=2 Linecode=1P_OH_AL_4/0_Zuzara_0_416_0_2_2_2_2_2_2_2_2_2_2_2_2_2_2_2_2_2_2_2_2_2_2_2_2_2_2_2_2_2

New Line.l(r:p1rdm3972-p1rlv5662) Units=km Length=0.04505340000000001 bus1=p1rdm3972.1.2 bus2=p1rlv5662.1.2 switch=n enabled=y phases=2 Linecode=1P_OH_AL_4/0_Zuzara_0_416_0_2_2_2_2_2_2_2_2_2_2_2_2_2_2_2_2_2_2_2_2_2_2_2_2_2_2_2_2_2

New Line.l(r:p1rdm3972-p1rdm3973) Units=km Length=0.0175352 bus1=p1rdm3973.1.2 bus2=p1rdm3972.1.2 switch=n enabled=y phases=2 Linecode=1P_OH_AL_2/0_Rucina_0_416_0_2_2_2_2_2_2_2_2_2_2_2_2_2_2_2_2_2_2_2_2_2_2_2_2_2_2_2_2_2

New Line.l(r:p1rdm3973-p1rdt1827lv) Units=km Length=0.0175456 bus1=p1rdt1827lv.1.2 bus2=p1rdm3973.1.2 switch=n enabled=y phases=2 Linecode=1P_OH_AL_2/0_Rucina_0_416_0_2_2_2_2_2_2_2_2_2_2_2_2_2_2_2_2_2_2_2_2_2_2_2_2_2_2_2_2_2

New Line.l(r:p1rdt1828lv-p1rlv2017) Units=km Length=0.0777889 bus1=p1rdt1828lv.1.2 bus2=p1rlv2017.1.2 switch=n enabled=y phases=2 Linecode=1P_OH_AL_4/0_Zuzara_0_416_0_2_2_2_2_2_2_2_2_2_2_2_2_2_2_2_2_2_2_2_2_2_2_2_2_2_2_2_2_2

New Line.l(r:p1rdt1935lv-p1rlv2142) Units=km Length=0.0118358 bus1=p1rdt1935lv.1.2 bus2=p1rlv2142.1.2 switch=n enabled=y phases=2 Linecode=1P_OH_AL_2/0_Rucina_0_416_0_2_2_2_2_2_2_2_2_2_2_2_2_2_2_2_2_2_2_2_2_2_2_2_2_2_2_2_2_2

New Line.l(r:p1rdt1935lv-p1rlv7897) Units=km Length=0.0322967 bus1=p1rdt1935lv.1.2 bus2=p1rlv7897.1.2 switch=n enabled=y phases=2 Linecode=1P_OH_AL_4/0_Zuzara_0_416_0_2_2_2_2_2_2_2_2_2_2_2_2_2_2_2_2_2_2_2_2_2_2_2_2_2_2_2_2_2

New Line.l(r:p1rdt1935lv-p1rlv8400) Units=km Length=0.0367841 bus1=p1rdt1935lv.1.2 bus2=p1rlv8400.1.2 switch=n enabled=y phases=2 Linecode=1P_OH_AL_4/0_Zuzara_0_416_0_2_2_2_2_2_2_2_2_2_2_2_2_2_2_2_2_2_2_2_2_2_2_2_2_2_2_2_2_2

New Line.l(r:p1rdt1936lv-p1rlv2143) Units=km Length=0.0364023 bus1=p1rdt1936lv.1.2 bus2=p1rlv2143.1.2 switch=n enabled=y phases=2 Linecode=1P_OH_AL_4/0_Zuzara_0_416_0_2_2_2_2_2_2_2_2_2_2_2_2_2_2_2_2_2_2_2_2_2_2_2_2_2_2_2_2_2

New Line.l(r:p1rdt1936lv-p1rlv10693) Units=km Length=0.0364023 bus1=p1rdt1936lv.1.2 bus2=p1rlv10693.1.2 switch=n enabled=y phases=2 Linecode=1P_OH_AL_4/0_Zuzara_0_416_0_2_2_2_2_2_2_2_2_2_2_2_2_2_2_2_2_2_2_2_2_2_2_2_2_2_2_2_2_2

New Line.l(r:p1rdt2061lv-p1rlv2293) Units=km Length=0.126264 bus1=p1rdt2061lv.1.2 bus2=p1rlv2293.1.2 switch=n enabled=y phases=2 Linecode=1P_OH_AL_4/0_Zuzara_0_416_0_2_2_2_2_2_2_2_2_2_2_2_2_2_2_2_2_2_2_2_2_2_2_2_2_2_2_2_2_2

New Line.l(r:p1rdt2061lv-p1rlv3202) Units=km Length=0.0732079 bus1=p1rdt2061lv.1.2 bus2=p1rlv3202.1.2 switch=n enabled=y phases=2 Linecode=1P_OH_AL_4/0_Zuzara_0_416_0_2_2_2_2_2_2_2_2_2_2_2_2_2_2_2_2_2_2_2_2_2_2_2_2_2_2_2_2_2

New Line.l(r:p1rdt2061lv-p1rlv9070) Units=km Length=0.0989853 bus1=p1rdt2061lv.1.2 bus2=p1rlv9070.1.2 switch=n enabled=y phases=2 Linecode=1P_OH_AL_4/0_Zuzara_0_416_0_2_2_2_2_2_2_2_2_2_2_2_2_2_2_2_2_2_2_2_2_2_2_2_2_2_2_2_2_2

New Line.l(r:p1rdt2063lv-p1rlv2297) Units=km Length=0.001 bus1=p1rdt2063lv.1.2 bus2=p1rlv2297.1.2 switch=n enabled=y phases=2 Linecode=1P_OH_AL_4_Periwinkle_0_416_0_2_2_2_2_2_2_2_2_2_2_2_2_2_2_2_2_2_2_2_2_2_2_2_2_2_2_2_2_2

New Line.l(r:p1rdt2180lv-p1rlv2432) Units=km Length=0.0308624 bus1=p1rdt2180lv.1.2 bus2=p1rlv2432.1.2 switch=n enabled=y phases=2 Linecode=1P_OH_AL_4/0_Zuzara_0_416_0_2_2_2_2_2_2_2_2_2_2_2_2_2_2_2_2_2_2_2_2_2_2_2_2_2_2_2_2_2

New Line.l(r:p1rdm4665-p1rlv2433) Units=km Length=0.0263776 bus1=p1rdm4665.1.2 bus2=p1rlv2433.1.2 switch=n enabled=y phases=2 Linecode=1P_OH_AL_2/0_Rucina_0_416_0_2_2_2_2_2_2_2_2_2_2_2_2_2_2_2_2_2_2_2_2_2_2_2_2_2_2_2_2_2

New Line.l(r:p1rdm4665-p1rdt2181lv) Units=km Length=0.0389608 bus1=p1rdt2181lv.1.2 bus2=p1rdm4665.1.2 switch=n enabled=y phases=2 Linecode=1P_OH_AL_4/0_Zuzara_0_416_0_2_2_2_2_2_2_2_2_2_2_2_2_2_2_2_2_2_2_2_2_2_2_2_2_2_2_2_2_2

New Line.l(r:p1rdm4666-p1rlv10025) Units=km Length=0.0295765 bus1=p1rdm4666.1.2 bus2=p1rlv10025.1.2 switch=n enabled=y phases=2 Linecode=1P_OH_AL_4/0_Zuzara_0_416_0_2_2_2_2_2_2_2_2_2_2_2_2_2_2_2_2_2_2_2_2_2_2_2_2_2_2_2_2_2

New Line.l(r:p1rdm4666-p1rdt2181lv) Units=km Length=0.0194735 bus1=p1rdt2181lv.1.2 bus2=p1rdm4666.1.2 switch=n enabled=y phases=2 Linecode=1P_OH_AL_2/0_Rucina_0_416_0_2_2_2_2_2_2_2_2_2_2_2_2_2_2_2_2_2_2_2_2_2_2_2_2_2_2_2_2_2

New Line.l(r:p1rdt2278lv-p1rlv2552) Units=km Length=0.0124945 bus1=p1rdt2278lv.1.2 bus2=p1rlv2552.1.2 switch=n enabled=y phases=2 Linecode=1P_OH_AL_2/0_Rucina_0_416_0_2_2_2_2_2_2_2_2_2_2_2_2_2_2_2_2_2_2_2_2_2_2_2_2_2_2_2_2_2

New Line.l(r:p1rdm4849-p1rlv2836) Units=km Length=0.024644700000000002 bus1=p1rdm4849.1.2 bus2=p1rlv2836.1.2 switch=n enabled=y phases=2 Linecode=1P_OH_AL_2/0_Rucina_0_416_0_2_2_2_2_2_2_2_2_2_2_2_2_2_2_2_2_2_2_2_2_2_2_2_2_2_2_2_2_2

New Line.l(r:p1rdm4849-p1rdt2278lv) Units=km Length=0.0631732 bus1=p1rdt2278lv.1.2 bus2=p1rdm4849.1.2 switch=n enabled=y phases=2 Linecode=1P_OH_AL_4/0_Zuzara_0_416_0_2_2_2_2_2_2_2_2_2_2_2_2_2_2_2_2_2_2_2_2_2_2_2_2_2_2_2_2_2

New Line.l(r:p1rdt2391lv-p1rlv2698) Units=km Length=0.0369929 bus1=p1rdt2391lv.1.2 bus2=p1rlv2698.1.2 switch=n enabled=y phases=2 Linecode=1P_OH_AL_4/0_Zuzara_0_416_0_2_2_2_2_2_2_2_2_2_2_2_2_2_2_2_2_2_2_2_2_2_2_2_2_2_2_2_2_2

New Line.l(r:p1rdt2391lv-p1rlv3077) Units=km Length=0.0242739 bus1=p1rdt2391lv.1.2 bus2=p1rlv3077.1.2 switch=n enabled=y phases=2 Linecode=1P_OH_AL_2/0_Rucina_0_416_0_2_2_2_2_2_2_2_2_2_2_2_2_2_2_2_2_2_2_2_2_2_2_2_2_2_2_2_2_2

New Line.l(r:p1rdt2391lv-p1rlv12606) Units=km Length=0.0224901 bus1=p1rdt2391lv.1.2 bus2=p1rlv12606.1.2 switch=n enabled=y phases=2 Linecode=1P_OH_AL_2/0_Rucina_0_416_0_2_2_2_2_2_2_2_2_2_2_2_2_2_2_2_2_2_2_2_2_2_2_2_2_2_2_2_2_2

New Line.l(r:p1rdm5064-p1rlv10413) Units=km Length=0.0235882 bus1=p1rdm5064.1.2 bus2=p1rlv10413.1.2 switch=n enabled=y phases=2 Linecode=1P_OH_AL_2/0_Rucina_0_416_0_2_2_2_2_2_2_2_2_2_2_2_2_2_2_2_2_2_2_2_2_2_2_2_2_2_2_2_2_2

New Line.l(r:p1rdm5064-p1rdt2391lv) Units=km Length=0.021489500000000005 bus1=p1rdt2391lv.1.2 bus2=p1rdm5064.1.2 switch=n enabled=y phases=2 Linecode=1P_OH_AL_2/0_Rucina_0_416_0_2_2_2_2_2_2_2_2_2_2_2_2_2_2_2_2_2_2_2_2_2_2_2_2_2_2_2_2_2

New Line.l(r:p1rdt2393lv-p1rlv2700) Units=km Length=0.0127163 bus1=p1rdt2393lv.1.2 bus2=p1rlv2700.1.2 switch=n enabled=y phases=2 Linecode=1P_OH_AL_2/0_Rucina_0_416_0_2_2_2_2_2_2_2_2_2_2_2_2_2_2_2_2_2_2_2_2_2_2_2_2_2_2_2_2_2

New Line.l(r:p1rdt2393lv-p1rlv9197) Units=km Length=0.0127163 bus1=p1rdt2393lv.1.2 bus2=p1rlv9197.1.2 switch=n enabled=y phases=2 Linecode=1P_OH_AL_2/0_Rucina_0_416_0_2_2_2_2_2_2_2_2_2_2_2_2_2_2_2_2_2_2_2_2_2_2_2_2_2_2_2_2_2

New Line.l(r:p1rdt2395lv-p1rlv2702) Units=km Length=0.001 bus1=p1rdt2395lv.1.2 bus2=p1rlv2702.1.2 switch=n enabled=y phases=2 Linecode=1P_OH_AL_4_Periwinkle_0_416_0_2_2_2_2_2_2_2_2_2_2_2_2_2_2_2_2_2_2_2_2_2_2_2_2_2_2_2_2_2

New Line.l(r:p1rdt2497lv-p1rlv13519) Units=km Length=0.0387509 bus1=p1rdt2497lv.1.2 bus2=p1rlv13519.1.2 switch=n enabled=y phases=2 Linecode=1P_OH_AL_4/0_Zuzara_0_416_0_2_2_2_2_2_2_2_2_2_2_2_2_2_2_2_2_2_2_2_2_2_2_2_2_2_2_2_2_2

New Line.l(r:p1rdm5260-p1rlv2834)_s0 Units=km Length=0.0684032 bus1=p1rdm5260.1.2 bus2=p1rdm5260-p1rlv2834x.1.2 switch=n enabled=y phases=2 Linecode=1P_OH_AL_4/0_Zuzara_0_416_0_2_2_2_2_2_2_2_2_2_2_2_2_2_2_2_2_2_2_2_2_2_2_2_2_2_2_2_2_2

New Line.l(r:p1rdm5260-p1rlv2834)_s1 Units=km Length=0.005904000000000001 bus1=p1rdm5260-p1rlv2834x.1.2 bus2=p1rlv2834.1.2 switch=n enabled=y phases=2 Linecode=1P_OH_AL_2/0_Rucina_0_416_0_2_2_2_2_2_2_2_2_2_2_2_2_2_2_2_2_2_2_2_2_2_2_2_2_2_2_2_2_2

New Line.l(r:p1rdm5260-p1rdt2497lv) Units=km Length=0.0344572 bus1=p1rdt2497lv.1.2 bus2=p1rdm5260.1.2 switch=n enabled=y phases=2 Linecode=1P_OH_AL_4/0_Zuzara_0_416_0_2_2_2_2_2_2_2_2_2_2_2_2_2_2_2_2_2_2_2_2_2_2_2_2_2_2_2_2_2

New Line.l(r:p1rdt2498lv-p1rlv2837) Units=km Length=0.0250558 bus1=p1rdt2498lv.1.2 bus2=p1rlv2837.1.2 switch=n enabled=y phases=2 Linecode=1P_OH_AL_2/0_Rucina_0_416_0_2_2_2_2_2_2_2_2_2_2_2_2_2_2_2_2_2_2_2_2_2_2_2_2_2_2_2_2_2

New Line.l(r:p1rdt2590lv-p1rlv2953) Units=km Length=0.0727165 bus1=p1rdt2590lv.1.2 bus2=p1rlv2953.1.2 switch=n enabled=y phases=2 Linecode=1P_OH_AL_4/0_Zuzara_0_416_0_2_2_2_2_2_2_2_2_2_2_2_2_2_2_2_2_2_2_2_2_2_2_2_2_2_2_2_2_2

New Line.l(r:p1rdm5454-p1rlv8953) Units=km Length=0.0458473 bus1=p1rdm5454.1.2 bus2=p1rlv8953.1.2 switch=n enabled=y phases=2 Linecode=1P_OH_AL_4/0_Zuzara_0_416_0_2_2_2_2_2_2_2_2_2_2_2_2_2_2_2_2_2_2_2_2_2_2_2_2_2_2_2_2_2

New Line.l(r:p1rdm5454-p1rdt2590lv) Units=km Length=0.0197938 bus1=p1rdt2590lv.1.2 bus2=p1rdm5454.1.2 switch=n enabled=y phases=2 Linecode=1P_OH_AL_2/0_Rucina_0_416_0_2_2_2_2_2_2_2_2_2_2_2_2_2_2_2_2_2_2_2_2_2_2_2_2_2_2_2_2_2

New Line.l(r:p1rdt2789lv-p1rlv3207) Units=km Length=0.0455224 bus1=p1rdt2789lv.1.2 bus2=p1rlv3207.1.2 switch=n enabled=y phases=2 Linecode=1P_OH_AL_4/0_Zuzara_0_416_0_2_2_2_2_2_2_2_2_2_2_2_2_2_2_2_2_2_2_2_2_2_2_2_2_2_2_2_2_2

New Line.l(r:p1rdt2789lv-p1rlv4022) Units=km Length=0.0140619 bus1=p1rdt2789lv.1.2 bus2=p1rlv4022.1.2 switch=n enabled=y phases=2 Linecode=1P_OH_AL_2/0_Rucina_0_416_0_2_2_2_2_2_2_2_2_2_2_2_2_2_2_2_2_2_2_2_2_2_2_2_2_2_2_2_2_2

New Line.l(r:p1rdt2889lv-p1rlv3334) Units=km Length=0.019965 bus1=p1rdt2889lv.1.2 bus2=p1rlv3334.1.2 switch=n enabled=y phases=2 Linecode=1P_OH_AL_2/0_Rucina_0_416_0_2_2_2_2_2_2_2_2_2_2_2_2_2_2_2_2_2_2_2_2_2_2_2_2_2_2_2_2_2

New Line.l(r:p1rdt2890lv-p1rlv3335) Units=km Length=0.0931502 bus1=p1rdt2890lv.1.2 bus2=p1rlv3335.1.2 switch=n enabled=y phases=2 Linecode=1P_OH_AL_4/0_Zuzara_0_416_0_2_2_2_2_2_2_2_2_2_2_2_2_2_2_2_2_2_2_2_2_2_2_2_2_2_2_2_2_2

New Line.l(r:p1rdt2890lv-p1rlv4579) Units=km Length=0.0786635 bus1=p1rdt2890lv.1.2 bus2=p1rlv4579.1.2 switch=n enabled=y phases=2 Linecode=1P_OH_AL_4/0_Zuzara_0_416_0_2_2_2_2_2_2_2_2_2_2_2_2_2_2_2_2_2_2_2_2_2_2_2_2_2_2_2_2_2
