New Line.l(r:p1udt615lv-p1ulv622) Units=km Length=0.0163139 bus1=p1udt615lv.1.2 bus2=p1ulv622.1.2 switch=n enabled=y phases=2 Linecode=1P_UG_AL_4/0_Sweetbriar_0_416_0_2_2_2_2

New Line.l(r:p1udt615lv-p1ulv13796) Units=km Length=0.0143587 bus1=p1udt615lv.1.2 bus2=p1ulv13796.1.2 switch=n enabled=y phases=2 Linecode=1P_UG_AL_2/0_Converse_0_416_0_2_2_2_2

New Line.l(r:p1udm2273-p1ulv48044) Units=km Length=0.0165284 bus1=p1udm2273.1.2 bus2=p1ulv48044.1.2 switch=n enabled=y phases=2 Linecode=1P_UG_AL_4/0_Sweetbriar_0_416_0_2_2_2_2

New Line.l(r:p1udm2273-p1udt615lv) Units=km Length=0.00994835 bus1=p1udt615lv.1.2 bus2=p1udm2273.1.2 switch=n enabled=y phases=2 Linecode=1P_UG_AL_4/0_Sweetbriar_0_416_0_2_2_2_2

New Line.l(r:p1udt621lv-p1ulv629) Units=km Length=0.0252255 bus1=p1udt621lv.1.2 bus2=p1ulv629.1.2 switch=n enabled=y phases=2 Linecode=1P_UG_AL_1/0_Brenau_0_416_0_2_2_2_2

New Line.l(r:p1udt621lv-p1ulv630) Units=km Length=0.0269475 bus1=p1udt621lv.1.2 bus2=p1ulv630.1.2 switch=n enabled=y phases=2 Linecode=1P_UG_AL_1/0_Brenau_0_416_0_2_2_2_2

New Line.l(r:p1udt621lv-p1ulv39235) Units=km Length=0.0250006 bus1=p1udt621lv.1.2 bus2=p1ulv39235.1.2 switch=n enabled=y phases=2 Linecode=1P_UG_AL_1/0_Brenau_0_416_0_2_2_2_2

New Line.l(r:p1udt621lv-p1ulv45551) Units=km Length=0.0234723 bus1=p1udt621lv.1.2 bus2=p1ulv45551.1.2 switch=n enabled=y phases=2 Linecode=1P_UG_AL_1/0_Brenau_0_416_0_2_2_2_2

New Line.l(r:p1udm2284-p1ulv9450) Units=km Length=0.020666 bus1=p1udm2284.1.2 bus2=p1ulv9450.1.2 switch=n enabled=y phases=2 Linecode=1P_UG_AL_1/0_Brenau_0_416_0_2_2_2_2

New Line.l(r:p1udm2284-p1ulv33540) Units=km Length=0.0211724 bus1=p1udm2284.1.2 bus2=p1ulv33540.1.2 switch=n enabled=y phases=2 Linecode=1P_UG_AL_1/0_Brenau_0_416_0_2_2_2_2

New Line.l(r:p1udm2284-p1udt621lv) Units=km Length=0.016759200000000002 bus1=p1udt621lv.1.2 bus2=p1udm2284.1.2 switch=n enabled=y phases=2 Linecode=1P_UG_AL_4/0_Sweetbriar_0_416_0_2_2_2_2

New Line.l(r:p1udm3904-p1ulv1093) Units=km Length=0.0165292 bus1=p1udm3904.1.2 bus2=p1ulv1093.1.2 switch=n enabled=y phases=2 Linecode=1P_UG_AL_1/0_Brenau_0_416_0_2_2_2_2

New Line.l(r:p1udm3904-p1ulv46074) Units=km Length=0.0168244 bus1=p1udm3904.1.2 bus2=p1ulv46074.1.2 switch=n enabled=y phases=2 Linecode=1P_UG_AL_1/0_Brenau_0_416_0_2_2_2_2

New Line.l(r:p1udm3906-p1ulv27057) Units=km Length=0.0152015 bus1=p1udm3906.1.2 bus2=p1ulv27057.1.2 switch=n enabled=y phases=2 Linecode=1P_UG_AL_1/0_Brenau_0_416_0_2_2_2_2

New Line.l(r:p1udm3904-p1udm3906) Units=km Length=0.0186189 bus1=p1udm3904.1.2 bus2=p1udm3906.1.2 switch=n enabled=y phases=2 Linecode=1P_UG_AL_1/0_Brenau_0_416_0_2_2_2_2

New Line.l(r:p1udm3904-p1udt1070lv) Units=km Length=0.00931161 bus1=p1udt1070lv.1.2 bus2=p1udm3904.1.2 switch=n enabled=y phases=2 Linecode=1P_UG_AL_4/0_Sweetbriar_0_416_0_2_2_2_2

New Line.l(r:p1udm3905-p1ulv17444) Units=km Length=0.0169935 bus1=p1udm3905.1.2 bus2=p1ulv17444.1.2 switch=n enabled=y phases=2 Linecode=1P_UG_AL_1/0_Brenau_0_416_0_2_2_2_2

New Line.l(r:p1udm3905-p1udt1070lv) Units=km Length=0.046540500000000005 bus1=p1udt1070lv.1.2 bus2=p1udm3905.1.2 switch=n enabled=y phases=2 Linecode=1P_UG_AL_1/0_Brenau_0_416_0_2_2_2_2

New Line.l(r:p1udt1072lv-p1ulv1095) Units=km Length=0.010734800000000001 bus1=p1udt1072lv.1.2 bus2=p1ulv1095.1.2 switch=n enabled=y phases=2 Linecode=1P_UG_AL_1/0_Brenau_0_416_0_2_2_2_2

New Line.l(r:p1udt1072lv-p1ulv50364) Units=km Length=0.0148326 bus1=p1udt1072lv.1.2 bus2=p1ulv50364.1.2 switch=n enabled=y phases=2 Linecode=1P_UG_AL_1/0_Brenau_0_416_0_2_2_2_2

New Line.l(r:p1udt1072lv-p1ulv57822) Units=km Length=0.0222722 bus1=p1udt1072lv.1.2 bus2=p1ulv57822.1.2 switch=n enabled=y phases=2 Linecode=1P_UG_AL_1/0_Brenau_0_416_0_2_2_2_2

New Line.l(r:p1udm3916-p1ulv10567) Units=km Length=0.026547600000000005 bus1=p1udm3916.1.2 bus2=p1ulv10567.1.2 switch=n enabled=y phases=2 Linecode=1P_UG_AL_1/0_Brenau_0_416_0_2_2_2_2

New Line.l(r:p1udm3916-p1udt1072lv) Units=km Length=0.0296463 bus1=p1udt1072lv.1.2 bus2=p1udm3916.1.2 switch=n enabled=y phases=2 Linecode=1P_UG_AL_1/0_Brenau_0_416_0_2_2_2_2

New Line.l(r:p1udm3917-p1ulv35328) Units=km Length=0.0301761 bus1=p1udm3917.1.2 bus2=p1ulv35328.1.2 switch=n enabled=y phases=2 Linecode=1P_UG_AL_1/0_Brenau_0_416_0_2_2_2_2

New Line.l(r:p1udm3917-p1ulv39728) Units=km Length=0.030876 bus1=p1udm3917.1.2 bus2=p1ulv39728.1.2 switch=n enabled=y phases=2 Linecode=1P_UG_AL_1/0_Brenau_0_416_0_2_2_2_2

New Line.l(r:p1udm3919-p1ulv44800) Units=km Length=0.0282877 bus1=p1udm3919.1.2 bus2=p1ulv44800.1.2 switch=n enabled=y phases=2 Linecode=1P_UG_AL_1/0_Brenau_0_416_0_2_2_2_2

New Line.l(r:p1udm3917-p1udm3919) Units=km Length=0.0296552 bus1=p1udm3917.1.2 bus2=p1udm3919.1.2 switch=n enabled=y phases=2 Linecode=1P_UG_AL_1/0_Brenau_0_416_0_2_2_2_2

New Line.l(r:p1udm3917-p1udt1072lv) Units=km Length=0.00988804 bus1=p1udt1072lv.1.2 bus2=p1udm3917.1.2 switch=n enabled=y phases=2 Linecode=1P_UG_AL_4/0_Sweetbriar_0_416_0_2_2_2_2

New Line.l(r:p1udm4319-p1ulv1211) Units=km Length=0.014363 bus1=p1udm4319.1.2 bus2=p1ulv1211.1.2 switch=n enabled=y phases=2 Linecode=1P_UG_AL_1/0_Brenau_0_416_0_2_2_2_2

New Line.l(r:p1udm4319-p1udt1177lv) Units=km Length=0.00954361 bus1=p1udt1177lv.1.2 bus2=p1udm4319.1.2 switch=n enabled=y phases=2 Linecode=1P_UG_AL_1/0_Brenau_0_416_0_2_2_2_2

New Line.l(r:p1udm4320-p1ulv24652) Units=km Length=0.0136026 bus1=p1udm4320.1.2 bus2=p1ulv24652.1.2 switch=n enabled=y phases=2 Linecode=1P_UG_AL_1/0_Brenau_0_416_0_2_2_2_2

New Line.l(r:p1udm4321-p1ulv37346) Units=km Length=0.0153084 bus1=p1udm4321.1.2 bus2=p1ulv37346.1.2 switch=n enabled=y phases=2 Linecode=1P_UG_AL_1/0_Brenau_0_416_0_2_2_2_2

New Line.l(r:p1udm4320-p1udm4321) Units=km Length=0.00957494 bus1=p1udm4320.1.2 bus2=p1udm4321.1.2 switch=n enabled=y phases=2 Linecode=1P_UG_AL_1/0_Brenau_0_416_0_2_2_2_2

New Line.l(r:p1udm4320-p1udt1177lv) Units=km Length=0.0228132 bus1=p1udt1177lv.1.2 bus2=p1udm4320.1.2 switch=n enabled=y phases=2 Linecode=1P_UG_AL_4/0_Sweetbriar_0_416_0_2_2_2_2

New Line.l(r:p1udm4322-p1ulv61621) Units=km Length=0.0168523 bus1=p1udm4322.1.2 bus2=p1ulv61621.1.2 switch=n enabled=y phases=2 Linecode=1P_UG_AL_1/0_Brenau_0_416_0_2_2_2_2

New Line.l(r:p1udm4322-p1udt1177lv) Units=km Length=0.0391452 bus1=p1udt1177lv.1.2 bus2=p1udm4322.1.2 switch=n enabled=y phases=2 Linecode=1P_UG_AL_1/0_Brenau_0_416_0_2_2_2_2

New Line.l(r:p1udt1186lv-p1ulv39869) Units=km Length=0.0134602 bus1=p1udt1186lv.1.2 bus2=p1ulv39869.1.2 switch=n enabled=y phases=2 Linecode=1P_UG_AL_1/0_Brenau_0_416_0_2_2_2_2

New Line.l(r:p1udm4345-p1ulv1220) Units=km Length=0.018538100000000002 bus1=p1udm4345.1.2 bus2=p1ulv1220.1.2 switch=n enabled=y phases=2 Linecode=1P_UG_AL_1/0_Brenau_0_416_0_2_2_2_2

New Line.l(r:p1udm4345-p1ulv12561) Units=km Length=0.0172693 bus1=p1udm4345.1.2 bus2=p1ulv12561.1.2 switch=n enabled=y phases=2 Linecode=1P_UG_AL_1/0_Brenau_0_416_0_2_2_2_2

New Line.l(r:p1udm4345-p1ulv27855) Units=km Length=0.0128875 bus1=p1udm4345.1.2 bus2=p1ulv27855.1.2 switch=n enabled=y phases=2 Linecode=1P_UG_AL_1/0_Brenau_0_416_0_2_2_2_2

New Line.l(r:p1udm4345-p1udt1186lv) Units=km Length=0.0189173 bus1=p1udt1186lv.1.2 bus2=p1udm4345.1.2 switch=n enabled=y phases=2 Linecode=1P_UG_AL_4/0_Sweetbriar_0_416_0_2_2_2_2

New Line.l(r:p1udm4346-p1ulv11922) Units=km Length=0.0163205 bus1=p1udm4346.1.2 bus2=p1ulv11922.1.2 switch=n enabled=y phases=2 Linecode=1P_UG_AL_1/0_Brenau_0_416_0_2_2_2_2

New Line.l(r:p1udm4348-p1ulv13191) Units=km Length=0.0125137 bus1=p1udm4348.1.2 bus2=p1ulv13191.1.2 switch=n enabled=y phases=2 Linecode=1P_UG_AL_1/0_Brenau_0_416_0_2_2_2_2

New Line.l(r:p1udm4346-p1udm4348) Units=km Length=0.0189173 bus1=p1udm4346.1.2 bus2=p1udm4348.1.2 switch=n enabled=y phases=2 Linecode=1P_UG_AL_1/0_Brenau_0_416_0_2_2_2_2

New Line.l(r:p1udm4346-p1udt1186lv) Units=km Length=0.009463030000000002 bus1=p1udt1186lv.1.2 bus2=p1udm4346.1.2 switch=n enabled=y phases=2 Linecode=1P_UG_AL_4/0_Sweetbriar_0_416_0_2_2_2_2

New Line.l(r:p1udt1187lv-p1ulv16963) Units=km Length=0.0125706 bus1=p1udt1187lv.1.2 bus2=p1ulv16963.1.2 switch=n enabled=y phases=2 Linecode=1P_UG_AL_1/0_Brenau_0_416_0_2_2_2_2

New Line.l(r:p1udm4351-p1ulv1221) Units=km Length=0.0105683 bus1=p1udm4351.1.2 bus2=p1ulv1221.1.2 switch=n enabled=y phases=2 Linecode=1P_UG_AL_1/0_Brenau_0_416_0_2_2_2_2

New Line.l(r:p1udm4351-p1ulv30333) Units=km Length=0.0174253 bus1=p1udm4351.1.2 bus2=p1ulv30333.1.2 switch=n enabled=y phases=2 Linecode=1P_UG_AL_1/0_Brenau_0_416_0_2_2_2_2

New Line.l(r:p1udm4351-p1udt1187lv) Units=km Length=0.009784750000000002 bus1=p1udt1187lv.1.2 bus2=p1udm4351.1.2 switch=n enabled=y phases=2 Linecode=1P_UG_AL_4/0_Sweetbriar_0_416_0_2_2_2_2

New Line.l(r:p1udm4353-p1ulv18235) Units=km Length=0.0127425 bus1=p1udm4353.1.2 bus2=p1ulv18235.1.2 switch=n enabled=y phases=2 Linecode=1P_UG_AL_1/0_Brenau_0_416_0_2_2_2_2

New Line.l(r:p1udm4353-p1udt1187lv) Units=km Length=0.0195566 bus1=p1udt1187lv.1.2 bus2=p1udm4353.1.2 switch=n enabled=y phases=2 Linecode=1P_UG_AL_1/0_Brenau_0_416_0_2_2_2_2

New Line.l(r:p1udm4355-p1ulv1222) Units=km Length=0.0158762 bus1=p1udm4355.1.2 bus2=p1ulv1222.1.2 switch=n enabled=y phases=2 Linecode=1P_UG_AL_1/0_Brenau_0_416_0_2_2_2_2

New Line.l(r:p1udm4355-p1ulv54282) Units=km Length=0.0133612 bus1=p1udm4355.1.2 bus2=p1ulv54282.1.2 switch=n enabled=y phases=2 Linecode=1P_UG_AL_1/0_Brenau_0_416_0_2_2_2_2

New Line.l(r:p1udm4358-p1ulv35451) Units=km Length=0.0192 bus1=p1udm4358.1.2 bus2=p1ulv35451.1.2 switch=n enabled=y phases=2 Linecode=1P_UG_AL_1/0_Brenau_0_416_0_2_2_2_2

New Line.l(r:p1udm4355-p1udm4358) Units=km Length=0.0194465 bus1=p1udm4355.1.2 bus2=p1udm4358.1.2 switch=n enabled=y phases=2 Linecode=1P_UG_AL_1/0_Brenau_0_416_0_2_2_2_2

New Line.l(r:p1udm4355-p1udt1188lv) Units=km Length=0.0097257 bus1=p1udt1188lv.1.2 bus2=p1udm4355.1.2 switch=n enabled=y phases=2 Linecode=1P_UG_AL_4/0_Sweetbriar_0_416_0_2_2_2_2

New Line.l(r:p1udm4356-p1ulv22712) Units=km Length=0.012904 bus1=p1udm4356.1.2 bus2=p1ulv22712.1.2 switch=n enabled=y phases=2 Linecode=1P_UG_AL_1/0_Brenau_0_416_0_2_2_2_2

New Line.l(r:p1udm4357-p1ulv29703) Units=km Length=0.013282300000000002 bus1=p1udm4357.1.2 bus2=p1ulv29703.1.2 switch=n enabled=y phases=2 Linecode=1P_UG_AL_1/0_Brenau_0_416_0_2_2_2_2

New Line.l(r:p1udm4356-p1udm4357) Units=km Length=0.0198877 bus1=p1udm4356.1.2 bus2=p1udm4357.1.2 switch=n enabled=y phases=2 Linecode=1P_UG_AL_1/0_Brenau_0_416_0_2_2_2_2

New Line.l(r:p1udm4356-p1udt1188lv) Units=km Length=0.0234741 bus1=p1udt1188lv.1.2 bus2=p1udm4356.1.2 switch=n enabled=y phases=2 Linecode=1P_UG_AL_4/0_Sweetbriar_0_416_0_2_2_2_2

New Line.l(r:p1udt1190lv-p1ulv27205) Units=km Length=0.0197254 bus1=p1udt1190lv.1.2 bus2=p1ulv27205.1.2 switch=n enabled=y phases=2 Linecode=1P_UG_AL_1/0_Brenau_0_416_0_2_2_2_2

New Line.l(r:p1udt1190lv-p1ulv29072) Units=km Length=0.00978285 bus1=p1udt1190lv.1.2 bus2=p1ulv29072.1.2 switch=n enabled=y phases=2 Linecode=1P_UG_AL_1/0_Brenau_0_416_0_2_2_2_2

New Line.l(r:p1udm4366-p1ulv1224) Units=km Length=0.0261521 bus1=p1udm4366.1.2 bus2=p1ulv1224.1.2 switch=n enabled=y phases=2 Linecode=1P_UG_AL_1/0_Brenau_0_416_0_2_2_2_2

New Line.l(r:p1udm4366-p1ulv62238) Units=km Length=0.010205 bus1=p1udm4366.1.2 bus2=p1ulv62238.1.2 switch=n enabled=y phases=2 Linecode=1P_UG_AL_1/0_Brenau_0_416_0_2_2_2_2

New Line.l(r:p1udm4366-p1udt1190lv) Units=km Length=0.0183698 bus1=p1udt1190lv.1.2 bus2=p1udm4366.1.2 switch=n enabled=y phases=2 Linecode=1P_UG_AL_4/0_Sweetbriar_0_416_0_2_2_2_2

New Line.l(r:p1udm4369-p1ulv42354) Units=km Length=0.0195003 bus1=p1udm4369.1.2 bus2=p1ulv42354.1.2 switch=n enabled=y phases=2 Linecode=1P_UG_AL_1/0_Brenau_0_416_0_2_2_2_2

New Line.l(r:p1udm4371-p1ulv64161) Units=km Length=0.0096393 bus1=p1udm4371.1.2 bus2=p1ulv64161.1.2 switch=n enabled=y phases=2 Linecode=1P_UG_AL_1/0_Brenau_0_416_0_2_2_2_2

New Line.l(r:p1udm4369-p1udm4371) Units=km Length=0.00918491 bus1=p1udm4369.1.2 bus2=p1udm4371.1.2 switch=n enabled=y phases=2 Linecode=1P_UG_AL_1/0_Brenau_0_416_0_2_2_2_2

New Line.l(r:p1udm4369-p1udt1190lv) Units=km Length=0.00919484 bus1=p1udt1190lv.1.2 bus2=p1udm4369.1.2 switch=n enabled=y phases=2 Linecode=1P_UG_AL_4/0_Sweetbriar_0_416_0_2_2_2_2

New Line.l(r:p1udt1193lv-p1ulv24659) Units=km Length=0.0285412 bus1=p1udt1193lv.1.2 bus2=p1ulv24659.1.2 switch=n enabled=y phases=2 Linecode=1P_UG_AL_1/0_Brenau_0_416_0_2_2_2_2

New Line.l(r:p1udm4381-p1ulv1227) Units=km Length=0.0279023 bus1=p1udm4381.1.2 bus2=p1ulv1227.1.2 switch=n enabled=y phases=2 Linecode=1P_UG_AL_1/0_Brenau_0_416_0_2_2_2_2

New Line.l(r:p1udm4381-p1udt1193lv) Units=km Length=0.0157687 bus1=p1udt1193lv.1.2 bus2=p1udm4381.1.2 switch=n enabled=y phases=2 Linecode=1P_UG_AL_1/0_Brenau_0_416_0_2_2_2_2

New Line.l(r:p1udm4382-p1ulv8191) Units=km Length=0.0277952 bus1=p1udm4382.1.2 bus2=p1ulv8191.1.2 switch=n enabled=y phases=2 Linecode=1P_UG_AL_2/0_Converse_0_416_0_2_2_2_2

New Line.l(r:p1udm4382-p1udt1193lv) Units=km Length=0.0147106 bus1=p1udt1193lv.1.2 bus2=p1udm4382.1.2 switch=n enabled=y phases=2 Linecode=1P_UG_AL_2/0_Converse_0_416_0_2_2_2_2

New Line.l(r:p1udm4391-p1ulv11930) Units=km Length=0.027912500000000003 bus1=p1udm4391.1.2 bus2=p1ulv11930.1.2 switch=n enabled=y phases=2 Linecode=1P_UG_AL_1/0_Brenau_0_416_0_2_2_2_2

New Line.l(r:p1udm4390-p1ulv1229) Units=km Length=0.0288884 bus1=p1udm4390.1.2 bus2=p1ulv1229.1.2 switch=n enabled=y phases=2 Linecode=1P_UG_AL_1/0_Brenau_0_416_0_2_2_2_2

New Line.l(r:p1udm4390-p1udm4391) Units=km Length=0.0095823 bus1=p1udm4391.1.2 bus2=p1udm4390.1.2 switch=n enabled=y phases=2 Linecode=1P_UG_AL_1/0_Brenau_0_416_0_2_2_2_2

New Line.l(r:p1udm4391-p1udt1195lv) Units=km Length=0.00957624 bus1=p1udt1195lv.1.2 bus2=p1udm4391.1.2 switch=n enabled=y phases=2 Linecode=1P_UG_AL_4/0_Sweetbriar_0_416_0_2_2_2_2

New Line.l(r:p1udm4392-p1ulv39236) Units=km Length=0.0276551 bus1=p1udm4392.1.2 bus2=p1ulv39236.1.2 switch=n enabled=y phases=2 Linecode=1P_UG_AL_1/0_Brenau_0_416_0_2_2_2_2

New Line.l(r:p1udm4392-p1udt1195lv) Units=km Length=0.0287085 bus1=p1udt1195lv.1.2 bus2=p1udm4392.1.2 switch=n enabled=y phases=2 Linecode=1P_UG_AL_1/0_Brenau_0_416_0_2_2_2_2

New Line.l(r:p1udt1806lv-p1ulv42969) Units=km Length=0.0261991 bus1=p1udt1806lv.1.2 bus2=p1ulv42969.1.2 switch=n enabled=y phases=2 Linecode=1P_UG_AL_2/0_Converse_0_416_0_2_2_2_2

New Line.l(r:p1udm6558-p1ulv25283) Units=km Length=0.026665900000000003 bus1=p1udm6558.1.2 bus2=p1ulv25283.1.2 switch=n enabled=y phases=2 Linecode=1P_UG_AL_1/0_Brenau_0_416_0_2_2_2_2

New Line.l(r:p1udm6557-p1ulv1893) Units=km Length=0.0600347 bus1=p1udm6557.1.2 bus2=p1ulv1893.1.2 switch=n enabled=y phases=2 Linecode=1P_UG_AL_2/0_Converse_0_416_0_2_2_2_2

New Line.l(r:p1udm6557-p1udm6558) Units=km Length=0.00962707 bus1=p1udm6558.1.2 bus2=p1udm6557.1.2 switch=n enabled=y phases=2 Linecode=1P_UG_AL_2/0_Converse_0_416_0_2_2_2_2

New Line.l(r:p1udm6558-p1udt1806lv) Units=km Length=0.00963177 bus1=p1udt1806lv.1.2 bus2=p1udm6558.1.2 switch=n enabled=y phases=2 Linecode=1P_UG_AL_4/0_Sweetbriar_0_416_0_2_2_2_2

New Line.l(r:p1udm6559-p1ulv37351) Units=km Length=0.026321 bus1=p1udm6559.1.2 bus2=p1ulv37351.1.2 switch=n enabled=y phases=2 Linecode=1P_UG_AL_1/0_Brenau_0_416_0_2_2_2_2

New Line.l(r:p1udm6559-p1udt1806lv) Units=km Length=0.0288859 bus1=p1udt1806lv.1.2 bus2=p1udm6559.1.2 switch=n enabled=y phases=2 Linecode=1P_UG_AL_1/0_Brenau_0_416_0_2_2_2_2

New Line.l(r:p1udm6561-p1ulv1894) Units=km Length=0.0167218 bus1=p1udm6561.1.2 bus2=p1ulv1894.1.2 switch=n enabled=y phases=2 Linecode=1P_UG_AL_1/0_Brenau_0_416_0_2_2_2_2

New Line.l(r:p1udm6561-p1ulv65423) Units=km Length=0.0169645 bus1=p1udm6561.1.2 bus2=p1ulv65423.1.2 switch=n enabled=y phases=2 Linecode=1P_UG_AL_1/0_Brenau_0_416_0_2_2_2_2

New Line.l(r:p1udm6563-p1ulv34197) Units=km Length=0.01813 bus1=p1udm6563.1.2 bus2=p1ulv34197.1.2 switch=n enabled=y phases=2 Linecode=1P_UG_AL_1/0_Brenau_0_416_0_2_2_2_2

New Line.l(r:p1udm6563-p1ulv39857) Units=km Length=0.017181700000000005 bus1=p1udm6563.1.2 bus2=p1ulv39857.1.2 switch=n enabled=y phases=2 Linecode=1P_UG_AL_2/0_Converse_0_416_0_2_2_2_2

New Line.l(r:p1udm6561-p1udm6563) Units=km Length=0.0188702 bus1=p1udm6561.1.2 bus2=p1udm6563.1.2 switch=n enabled=y phases=2 Linecode=1P_UG_AL_4/0_Sweetbriar_0_416_0_2_2_2_2

New Line.l(r:p1udm6561-p1udt1807lv) Units=km Length=0.00942635 bus1=p1udt1807lv.1.2 bus2=p1udm6561.1.2 switch=n enabled=y phases=2 Linecode=1P_UG_AL_4/0_Sweetbriar_0_416_0_2_2_2_2

New Line.l(r:p1udm6562-p1ulv18909) Units=km Length=0.014136700000000002 bus1=p1udm6562.1.2 bus2=p1ulv18909.1.2 switch=n enabled=y phases=2 Linecode=1P_UG_AL_1/0_Brenau_0_416_0_2_2_2_2

New Line.l(r:p1udm6562-p1udt1807lv) Units=km Length=0.0909167 bus1=p1udt1807lv.1.2 bus2=p1udm6562.1.2 switch=n enabled=y phases=2 Linecode=1P_UG_AL_1/0_Brenau_0_416_0_2_2_2_2

New Line.l(r:p1udt1808lv-p1ulv3176) Units=km Length=0.0112001 bus1=p1udt1808lv.1.2 bus2=p1ulv3176.1.2 switch=n enabled=y phases=2 Linecode=1P_UG_AL_1/0_Brenau_0_416_0_2_2_2_2

New Line.l(r:p1udm6568-p1ulv24656) Units=km Length=0.0177552 bus1=p1udm6568.1.2 bus2=p1ulv24656.1.2 switch=n enabled=y phases=2 Linecode=1P_UG_AL_1/0_Brenau_0_416_0_2_2_2_2

New Line.l(r:p1udm6568-p1ulv48675) Units=km Length=0.0142558 bus1=p1udm6568.1.2 bus2=p1ulv48675.1.2 switch=n enabled=y phases=2 Linecode=1P_UG_AL_1/0_Brenau_0_416_0_2_2_2_2

New Line.l(r:p1udm6568-p1udt1808lv) Units=km Length=0.00900169 bus1=p1udt1808lv.1.2 bus2=p1udm6568.1.2 switch=n enabled=y phases=2 Linecode=1P_UG_AL_4/0_Sweetbriar_0_416_0_2_2_2_2

New Line.l(r:p1udm6569-p1ulv48051) Units=km Length=0.014434600000000002 bus1=p1udm6569.1.2 bus2=p1ulv48051.1.2 switch=n enabled=y phases=2 Linecode=1P_UG_AL_1/0_Brenau_0_416_0_2_2_2_2

New Line.l(r:p1udm6566-p1ulv1895) Units=km Length=0.014538800000000001 bus1=p1udm6566.1.2 bus2=p1ulv1895.1.2 switch=n enabled=y phases=2 Linecode=1P_UG_AL_1/0_Brenau_0_416_0_2_2_2_2

New Line.l(r:p1udm6566-p1udm6569) Units=km Length=0.0151192 bus1=p1udm6569.1.2 bus2=p1udm6566.1.2 switch=n enabled=y phases=2 Linecode=1P_UG_AL_1/0_Brenau_0_416_0_2_2_2_2

New Line.l(r:p1udm6569-p1udt1808lv) Units=km Length=0.0075634 bus1=p1udt1808lv.1.2 bus2=p1udm6569.1.2 switch=n enabled=y phases=2 Linecode=1P_UG_AL_4/0_Sweetbriar_0_416_0_2_2_2_2

New Line.l(r:p1udt1810lv-p1ulv1897) Units=km Length=0.0293599 bus1=p1udt1810lv.1.2 bus2=p1ulv1897.1.2 switch=n enabled=y phases=2 Linecode=1P_OH_AL_4/0_Zuzara_0_416_0_2_2_2_2

New Line.l(r:p1udm6583-p1ulv1899) Units=km Length=0.019002 bus1=p1udm6583.1.2 bus2=p1ulv1899.1.2 switch=n enabled=y phases=2 Linecode=1P_UG_AL_1/0_Brenau_0_416_0_2_2_2_2

New Line.l(r:p1udm6583-p1ulv23379) Units=km Length=0.0145294 bus1=p1udm6583.1.2 bus2=p1ulv23379.1.2 switch=n enabled=y phases=2 Linecode=1P_UG_AL_1/0_Brenau_0_416_0_2_2_2_2

New Line.l(r:p1udm6586-p1ulv41722) Units=km Length=0.0134633 bus1=p1udm6586.1.2 bus2=p1ulv41722.1.2 switch=n enabled=y phases=2 Linecode=1P_UG_AL_1/0_Brenau_0_416_0_2_2_2_2

New Line.l(r:p1udm6583-p1udm6586) Units=km Length=0.00995683 bus1=p1udm6583.1.2 bus2=p1udm6586.1.2 switch=n enabled=y phases=2 Linecode=1P_UG_AL_1/0_Brenau_0_416_0_2_2_2_2

New Line.l(r:p1udm6583-p1udt1812lv) Units=km Length=0.00996157 bus1=p1udt1812lv.1.2 bus2=p1udm6583.1.2 switch=n enabled=y phases=2 Linecode=1P_UG_AL_4/0_Sweetbriar_0_416_0_2_2_2_2

New Line.l(r:p1udm6585-p1ulv30338) Units=km Length=0.0296803 bus1=p1udm6585.1.2 bus2=p1ulv30338.1.2 switch=n enabled=y phases=2 Linecode=1P_UG_AL_1/0_Brenau_0_416_0_2_2_2_2

New Line.l(r:p1udm6585-p1ulv52415) Units=km Length=0.019548700000000002 bus1=p1udm6585.1.2 bus2=p1ulv52415.1.2 switch=n enabled=y phases=2 Linecode=1P_UG_AL_1/0_Brenau_0_416_0_2_2_2_2

New Line.l(r:p1udm6585-p1udt1812lv) Units=km Length=0.00996586 bus1=p1udt1812lv.1.2 bus2=p1udm6585.1.2 switch=n enabled=y phases=2 Linecode=1P_UG_AL_1/0_Brenau_0_416_0_2_2_2_2

New Line.l(r:p1udt1813lv-p1ulv1900) Units=km Length=0.017221 bus1=p1udt1813lv.1.2 bus2=p1ulv1900.1.2 switch=n enabled=y phases=2 Linecode=1P_UG_AL_1/0_Brenau_0_416_0_2_2_2_2

New Line.l(r:p1udt1813lv-p1ulv46211) Units=km Length=0.0153618 bus1=p1udt1813lv.1.2 bus2=p1ulv46211.1.2 switch=n enabled=y phases=2 Linecode=1P_UG_AL_1/0_Brenau_0_416_0_2_2_2_2

New Line.l(r:p1udm6590-p1ulv39240) Units=km Length=0.0173997 bus1=p1udm6590.1.2 bus2=p1ulv39240.1.2 switch=n enabled=y phases=2 Linecode=1P_UG_AL_1/0_Brenau_0_416_0_2_2_2_2

New Line.l(r:p1udm6590-p1ulv43649) Units=km Length=0.0174257 bus1=p1udm6590.1.2 bus2=p1ulv43649.1.2 switch=n enabled=y phases=2 Linecode=1P_UG_AL_1/0_Brenau_0_416_0_2_2_2_2

New Line.l(r:p1udm6590-p1udt1813lv) Units=km Length=0.0195255 bus1=p1udt1813lv.1.2 bus2=p1udm6590.1.2 switch=n enabled=y phases=2 Linecode=1P_UG_AL_4/0_Sweetbriar_0_416_0_2_2_2_2

New Line.l(r:p1udm6593-p1ulv55551) Units=km Length=0.0172395 bus1=p1udm6593.1.2 bus2=p1ulv55551.1.2 switch=n enabled=y phases=2 Linecode=1P_UG_AL_1/0_Brenau_0_416_0_2_2_2_2

New Line.l(r:p1udm6589-p1ulv8192) Units=km Length=0.017979 bus1=p1udm6589.1.2 bus2=p1ulv8192.1.2 switch=n enabled=y phases=2 Linecode=1P_UG_AL_1/0_Brenau_0_416_0_2_2_2_2

New Line.l(r:p1udm6589-p1udm6593) Units=km Length=0.00975599 bus1=p1udm6593.1.2 bus2=p1udm6589.1.2 switch=n enabled=y phases=2 Linecode=1P_UG_AL_1/0_Brenau_0_416_0_2_2_2_2

New Line.l(r:p1udm6593-p1udt1813lv) Units=km Length=0.00976066 bus1=p1udt1813lv.1.2 bus2=p1udm6593.1.2 switch=n enabled=y phases=2 Linecode=1P_UG_AL_4/0_Sweetbriar_0_416_0_2_2_2_2

New Line.l(r:p1udt2376lv-p1ulv2515) Units=km Length=0.013827900000000002 bus1=p1udt2376lv.1.2 bus2=p1ulv2515.1.2 switch=n enabled=y phases=2 Linecode=1P_OH_AL_2/0_Rucina_0_416_0_2_2_2_2

New Line.l(r:p1udt2966lv-p1ulv3170) Units=km Length=0.0156714 bus1=p1udt2966lv.1.2 bus2=p1ulv3170.1.2 switch=n enabled=y phases=2 Linecode=1P_OH_AL_2/0_Rucina_0_416_0_2_2_2_2

New Line.l(r:p1udt2973lv-p1ulv54286) Units=km Length=0.0149878 bus1=p1udt2973lv.1.2 bus2=p1ulv54286.1.2 switch=n enabled=y phases=2 Linecode=1P_UG_AL_1/0_Brenau_0_416_0_2_2_2_2

New Line.l(r:p1udm10556-p1ulv3178) Units=km Length=0.013384600000000002 bus1=p1udm10556.1.2 bus2=p1ulv3178.1.2 switch=n enabled=y phases=2 Linecode=1P_UG_AL_1/0_Brenau_0_416_0_2_2_2_2

New Line.l(r:p1udm10556-p1udt2973lv) Units=km Length=0.00975141 bus1=p1udt2973lv.1.2 bus2=p1udm10556.1.2 switch=n enabled=y phases=2 Linecode=1P_UG_AL_1/0_Brenau_0_416_0_2_2_2_2

New Line.l(r:p1udm10558-p1ulv55548) Units=km Length=0.0160695 bus1=p1udm10558.1.2 bus2=p1ulv55548.1.2 switch=n enabled=y phases=2 Linecode=1P_UG_AL_1/0_Brenau_0_416_0_2_2_2_2

New Line.l(r:p1udm10558-p1udt2973lv) Units=km Length=0.00975545 bus1=p1udt2973lv.1.2 bus2=p1udm10558.1.2 switch=n enabled=y phases=2 Linecode=1P_UG_AL_1/0_Brenau_0_416_0_2_2_2_2

New Line.l(r:p1udm10559-p1ulv3179) Units=km Length=0.011631800000000001 bus1=p1udm10559.1.2 bus2=p1ulv3179.1.2 switch=n enabled=y phases=2 Linecode=1P_UG_AL_1/0_Brenau_0_416_0_2_2_2_2

New Line.l(r:p1udm10559-p1ulv24029) Units=km Length=0.0190834 bus1=p1udm10559.1.2 bus2=p1ulv24029.1.2 switch=n enabled=y phases=2 Linecode=1P_UG_AL_1/0_Brenau_0_416_0_2_2_2_2

New Line.l(r:p1udm10559-p1udt2974lv) Units=km Length=0.00988758 bus1=p1udt2974lv.1.2 bus2=p1udm10559.1.2 switch=n enabled=y phases=2 Linecode=1P_UG_AL_4/0_Sweetbriar_0_416_0_2_2_2_2

New Line.l(r:p1udm10561-p1ulv38602) Units=km Length=0.021829 bus1=p1udm10561.1.2 bus2=p1ulv38602.1.2 switch=n enabled=y phases=2 Linecode=1P_UG_AL_1/0_Brenau_0_416_0_2_2_2_2

New Line.l(r:p1udm10561-p1ulv38603) Units=km Length=0.0143884 bus1=p1udm10561.1.2 bus2=p1ulv38603.1.2 switch=n enabled=y phases=2 Linecode=1P_UG_AL_1/0_Brenau_0_416_0_2_2_2_2

New Line.l(r:p1udm10561-p1udt2974lv) Units=km Length=0.00988201 bus1=p1udt2974lv.1.2 bus2=p1udm10561.1.2 switch=n enabled=y phases=2 Linecode=1P_UG_AL_4/0_Sweetbriar_0_416_0_2_2_2_2

New Line.l(r:p1udm10563-p1ulv3180) Units=km Length=0.0119506 bus1=p1udm10563.1.2 bus2=p1ulv3180.1.2 switch=n enabled=y phases=2 Linecode=1P_UG_AL_1/0_Brenau_0_416_0_2_2_2_2

New Line.l(r:p1udm10563-p1udt2975lv) Units=km Length=0.00962236 bus1=p1udt2975lv.1.2 bus2=p1udm10563.1.2 switch=n enabled=y phases=2 Linecode=1P_UG_AL_1/0_Brenau_0_416_0_2_2_2_2

New Line.l(r:p1udm10564-p1ulv4411) Units=km Length=0.0247428 bus1=p1udm10564.1.2 bus2=p1ulv4411.1.2 switch=n enabled=y phases=2 Linecode=1P_UG_AL_1/0_Brenau_0_416_0_2_2_2_2

New Line.l(r:p1udm10564-p1ulv62896) Units=km Length=0.0111224 bus1=p1udm10564.1.2 bus2=p1ulv62896.1.2 switch=n enabled=y phases=2 Linecode=1P_UG_AL_1/0_Brenau_0_416_0_2_2_2_2

New Line.l(r:p1udm10564-p1udt2975lv) Units=km Length=0.00960063 bus1=p1udt2975lv.1.2 bus2=p1udm10564.1.2 switch=n enabled=y phases=2 Linecode=1P_UG_AL_4/0_Sweetbriar_0_416_0_2_2_2_2

New Line.l(r:p1udt2979lv-p1ulv3184) Units=km Length=0.00707433 bus1=p1udt2979lv.1.2 bus2=p1ulv3184.1.2 switch=n enabled=y phases=2 Linecode=1P_UG_AL_1/0_Brenau_0_416_0_2_2_2_2

New Line.l(r:p1udm10574-p1ulv13176) Units=km Length=0.0135066 bus1=p1udm10574.1.2 bus2=p1ulv13176.1.2 switch=n enabled=y phases=2 Linecode=1P_UG_AL_1/0_Brenau_0_416_0_2_2_2_2

New Line.l(r:p1udm10574-p1ulv41724) Units=km Length=0.021483 bus1=p1udm10574.1.2 bus2=p1ulv41724.1.2 switch=n enabled=y phases=2 Linecode=1P_UG_AL_1/0_Brenau_0_416_0_2_2_2_2

New Line.l(r:p1udm10574-p1udt2979lv) Units=km Length=0.00996157 bus1=p1udt2979lv.1.2 bus2=p1udm10574.1.2 switch=n enabled=y phases=2 Linecode=1P_UG_AL_4/0_Sweetbriar_0_416_0_2_2_2_2

New Line.l(r:p1udm10575-p1ulv32217) Units=km Length=0.0215885 bus1=p1udm10575.1.2 bus2=p1ulv32217.1.2 switch=n enabled=y phases=2 Linecode=1P_UG_AL_1/0_Brenau_0_416_0_2_2_2_2

New Line.l(r:p1udm10575-p1udt2979lv) Units=km Length=0.00996586 bus1=p1udt2979lv.1.2 bus2=p1udm10575.1.2 switch=n enabled=y phases=2 Linecode=1P_UG_AL_1/0_Brenau_0_416_0_2_2_2_2

New Line.l(r:p1udm12504-p1ulv3811) Units=km Length=0.012719200000000002 bus1=p1udm12504.1.2 bus2=p1ulv3811.1.2 switch=n enabled=y phases=2 Linecode=1P_UG_AL_1/0_Brenau_0_416_0_2_2_2_2

New Line.l(r:p1udm12504-p1ulv21481) Units=km Length=0.0161185 bus1=p1udm12504.1.2 bus2=p1ulv21481.1.2 switch=n enabled=y phases=2 Linecode=1P_UG_AL_1/0_Brenau_0_416_0_2_2_2_2

New Line.l(r:p1udm12504-p1ulv37955) Units=km Length=0.0165217 bus1=p1udm12504.1.2 bus2=p1ulv37955.1.2 switch=n enabled=y phases=2 Linecode=1P_UG_AL_1/0_Brenau_0_416_0_2_2_2_2

New Line.l(r:p1udm12504-p1udt3536lv) Units=km Length=0.0097257 bus1=p1udt3536lv.1.2 bus2=p1udm12504.1.2 switch=n enabled=y phases=2 Linecode=1P_UG_AL_4/0_Sweetbriar_0_416_0_2_2_2_2

New Line.l(r:p1udm12506-p1ulv22086) Units=km Length=0.0164868 bus1=p1udm12506.1.2 bus2=p1ulv22086.1.2 switch=n enabled=y phases=2 Linecode=1P_UG_AL_1/0_Brenau_0_416_0_2_2_2_2

New Line.l(r:p1udm12506-p1ulv60969) Units=km Length=0.0137612 bus1=p1udm12506.1.2 bus2=p1ulv60969.1.2 switch=n enabled=y phases=2 Linecode=1P_UG_AL_1/0_Brenau_0_416_0_2_2_2_2

New Line.l(r:p1udm12506-p1udt3536lv) Units=km Length=0.0097257 bus1=p1udt3536lv.1.2 bus2=p1udm12506.1.2 switch=n enabled=y phases=2 Linecode=1P_UG_AL_4/0_Sweetbriar_0_416_0_2_2_2_2

New Line.l(r:p1udt3537lv-p1ulv13803) Units=km Length=0.032291 bus1=p1udt3537lv.1.2 bus2=p1ulv13803.1.2 switch=n enabled=y phases=2 Linecode=1P_UG_AL_4/0_Sweetbriar_0_416_0_2_2_2_2

New Line.l(r:p1udm12509-p1ulv3812) Units=km Length=0.0164972 bus1=p1udm12509.1.2 bus2=p1ulv3812.1.2 switch=n enabled=y phases=2 Linecode=1P_UG_AL_2/0_Converse_0_416_0_2_2_2_2

New Line.l(r:p1udm12509-p1udt3537lv) Units=km Length=0.00963177 bus1=p1udt3537lv.1.2 bus2=p1udm12509.1.2 switch=n enabled=y phases=2 Linecode=1P_UG_AL_2/0_Converse_0_416_0_2_2_2_2

New Line.l(r:p1udm12511-p1ulv34198) Units=km Length=0.032698 bus1=p1udm12511.1.2 bus2=p1ulv34198.1.2 switch=n enabled=y phases=2 Linecode=1P_UG_AL_1/0_Brenau_0_416_0_2_2_2_2

New Line.l(r:p1udm12511-p1udt3537lv) Units=km Length=0.0192588 bus1=p1udt3537lv.1.2 bus2=p1udm12511.1.2 switch=n enabled=y phases=2 Linecode=1P_UG_AL_1/0_Brenau_0_416_0_2_2_2_2

New Line.l(r:p1udt3538lv-p1ulv3814) Units=km Length=0.014828600000000003 bus1=p1udt3538lv.1.2 bus2=p1ulv3814.1.2 switch=n enabled=y phases=2 Linecode=1P_UG_AL_1/0_Brenau_0_416_0_2_2_2_2

New Line.l(r:p1udt3538lv-p1ulv50490) Units=km Length=0.0168043 bus1=p1udt3538lv.1.2 bus2=p1ulv50490.1.2 switch=n enabled=y phases=2 Linecode=1P_UG_AL_1/0_Brenau_0_416_0_2_2_2_2

New Line.l(r:p1udt3539lv-p1ulv3815) Units=km Length=0.0257741 bus1=p1udt3539lv.1.2 bus2=p1ulv3815.1.2 switch=n enabled=y phases=2 Linecode=1P_UG_AL_1/0_Brenau_0_416_0_2_2_2_2

New Line.l(r:p1udt3539lv-p1ulv13165) Units=km Length=0.0229868 bus1=p1udt3539lv.1.2 bus2=p1ulv13165.1.2 switch=n enabled=y phases=2 Linecode=1P_UG_AL_1/0_Brenau_0_416_0_2_2_2_2

New Line.l(r:p1udt3539lv-p1ulv37959) Units=km Length=0.0238975 bus1=p1udt3539lv.1.2 bus2=p1ulv37959.1.2 switch=n enabled=y phases=2 Linecode=1P_UG_AL_1/0_Brenau_0_416_0_2_2_2_2

New Line.l(r:p1udt3539lv-p1ulv59132) Units=km Length=0.0270568 bus1=p1udt3539lv.1.2 bus2=p1ulv59132.1.2 switch=n enabled=y phases=2 Linecode=1P_UG_AL_1/0_Brenau_0_416_0_2_2_2_2

New Line.l(r:p1udt4030lv-p1ulv28475) Units=km Length=0.0141304 bus1=p1udt4030lv.1.2 bus2=p1ulv28475.1.2 switch=n enabled=y phases=2 Linecode=1P_UG_AL_4/0_Sweetbriar_0_416_0_2_2_2_2

New Line.l(r:p1udt4030lv-p1ulv29070) Units=km Length=0.0153618 bus1=p1udt4030lv.1.2 bus2=p1ulv29070.1.2 switch=n enabled=y phases=2 Linecode=1P_UG_AL_1/0_Brenau_0_416_0_2_2_2_2

New Line.l(r:p1udm14206-p1ulv4407) Units=km Length=0.0152664 bus1=p1udm14206.1.2 bus2=p1ulv4407.1.2 switch=n enabled=y phases=2 Linecode=1P_UG_AL_1/0_Brenau_0_416_0_2_2_2_2

New Line.l(r:p1udm14206-p1udt4030lv) Units=km Length=0.009946080000000001 bus1=p1udt4030lv.1.2 bus2=p1udm14206.1.2 switch=n enabled=y phases=2 Linecode=1P_UG_AL_1/0_Brenau_0_416_0_2_2_2_2

New Line.l(r:p1udt4031lv-p1ulv4408) Units=km Length=0.0599917 bus1=p1udt4031lv.1.2 bus2=p1ulv4408.1.2 switch=n enabled=y phases=2 Linecode=1P_OH_AL_4/0_Zuzara_0_416_0_2_2_2_2

New Line.l(r:p1udt4031lv-p1ulv9446) Units=km Length=0.0490473 bus1=p1udt4031lv.1.2 bus2=p1ulv9446.1.2 switch=n enabled=y phases=2 Linecode=1P_OH_AL_4/0_Zuzara_0_416_0_2_2_2_2
