New Line.l(r:p1rdt67lv-p1rlv7959) Units=km Length=0.0264468 bus1=p1rdt67lv.1.2 bus2=p1rlv7959.1.2 switch=n enabled=y phases=2 Linecode=1P_OH_AL_2/0_Rucina_0_416_0_2_2_2_2_2_2_2_2_2_2_2_2_2_2_2_2_2_2_2_2_2_2_2_2_2_2_2_2_2

New Line.l(r:p1rdt67lv-p1rlv12672) Units=km Length=0.0113278 bus1=p1rdt67lv.1.2 bus2=p1rlv12672.1.2 switch=n enabled=y phases=2 Linecode=1P_OH_AL_2/0_Rucina_0_416_0_2_2_2_2_2_2_2_2_2_2_2_2_2_2_2_2_2_2_2_2_2_2_2_2_2_2_2_2_2

New Line.l(r:p1rdm171-p1rlv69) Units=km Length=0.0237553 bus1=p1rdm171.1.2 bus2=p1rlv69.1.2 switch=n enabled=y phases=2 Linecode=1P_OH_AL_2/0_Rucina_0_416_0_2_2_2_2_2_2_2_2_2_2_2_2_2_2_2_2_2_2_2_2_2_2_2_2_2_2_2_2_2

New Line.l(r:p1rdm171-p1rdt67lv) Units=km Length=0.0198718 bus1=p1rdt67lv.1.2 bus2=p1rdm171.1.2 switch=n enabled=y phases=2 Linecode=1P_OH_AL_2/0_Rucina_0_416_0_2_2_2_2_2_2_2_2_2_2_2_2_2_2_2_2_2_2_2_2_2_2_2_2_2_2_2_2_2

New Line.l(r:p1rdm172-p1rlv2075) Units=km Length=0.0400394 bus1=p1rdm172.1.2 bus2=p1rlv2075.1.2 switch=n enabled=y phases=2 Linecode=1P_OH_AL_4/0_Zuzara_0_416_0_2_2_2_2_2_2_2_2_2_2_2_2_2_2_2_2_2_2_2_2_2_2_2_2_2_2_2_2_2

New Line.l(r:p1rdm172-p1rdt67lv) Units=km Length=0.0586964 bus1=p1rdt67lv.1.2 bus2=p1rdm172.1.2 switch=n enabled=y phases=2 Linecode=1P_OH_AL_4/0_Zuzara_0_416_0_2_2_2_2_2_2_2_2_2_2_2_2_2_2_2_2_2_2_2_2_2_2_2_2_2_2_2_2_2

New Line.l(r:p1rdt68lv-p1rlv70) Units=km Length=0.010966900000000002 bus1=p1rdt68lv.1.2 bus2=p1rlv70.1.2 switch=n enabled=y phases=2 Linecode=1P_OH_AL_2/0_Rucina_0_416_0_2_2_2_2_2_2_2_2_2_2_2_2_2_2_2_2_2_2_2_2_2_2_2_2_2_2_2_2_2

New Line.l(r:p1rdt68lv-p1rlv3284) Units=km Length=0.0242444 bus1=p1rdt68lv.1.2 bus2=p1rlv3284.1.2 switch=n enabled=y phases=2 Linecode=1P_OH_AL_2/0_Rucina_0_416_0_2_2_2_2_2_2_2_2_2_2_2_2_2_2_2_2_2_2_2_2_2_2_2_2_2_2_2_2_2

New Line.l(r:p1rdt198lv-p1rlv205) Units=km Length=0.0503138 bus1=p1rdt198lv.1.2 bus2=p1rlv205.1.2 switch=n enabled=y phases=2 Linecode=1P_OH_AL_4/0_Zuzara_0_416_0_2_2_2_2_2_2_2_2_2_2_2_2_2_2_2_2_2_2_2_2_2_2_2_2_2_2_2_2_2

New Line.l(r:p1rdt198lv-p1rlv8327) Units=km Length=0.0503138 bus1=p1rdt198lv.1.2 bus2=p1rlv8327.1.2 switch=n enabled=y phases=2 Linecode=1P_OH_AL_4/0_Zuzara_0_416_0_2_2_2_2_2_2_2_2_2_2_2_2_2_2_2_2_2_2_2_2_2_2_2_2_2_2_2_2_2

New Line.l(r:p1rdt199lv-p1rlv206) Units=km Length=0.0077331 bus1=p1rdt199lv.1.2 bus2=p1rlv206.1.2 switch=n enabled=y phases=2 Linecode=1P_OH_AL_2/0_Rucina_0_416_0_2_2_2_2_2_2_2_2_2_2_2_2_2_2_2_2_2_2_2_2_2_2_2_2_2_2_2_2_2

New Line.l(r:p1rdt200lv-p1rlv207) Units=km Length=0.00429111 bus1=p1rdt200lv.1.2 bus2=p1rlv207.1.2 switch=n enabled=y phases=2 Linecode=1P_OH_AL_2/0_Rucina_0_416_0_2_2_2_2_2_2_2_2_2_2_2_2_2_2_2_2_2_2_2_2_2_2_2_2_2_2_2_2_2

New Line.l(r:p1rdt200lv-p1rlv6122) Units=km Length=0.0124505 bus1=p1rdt200lv.1.2 bus2=p1rlv6122.1.2 switch=n enabled=y phases=2 Linecode=1P_OH_AL_2/0_Rucina_0_416_0_2_2_2_2_2_2_2_2_2_2_2_2_2_2_2_2_2_2_2_2_2_2_2_2_2_2_2_2_2

New Line.l(r:p1rdt201lv-p1rlv208) Units=km Length=0.0329866 bus1=p1rdt201lv.1.2 bus2=p1rlv208.1.2 switch=n enabled=y phases=2 Linecode=1P_OH_AL_4/0_Zuzara_0_416_0_2_2_2_2_2_2_2_2_2_2_2_2_2_2_2_2_2_2_2_2_2_2_2_2_2_2_2_2_2

New Line.l(r:p1rdt202lv-p1rlv209) Units=km Length=0.0608644 bus1=p1rdt202lv.1.2 bus2=p1rlv209.1.2 switch=n enabled=y phases=2 Linecode=1P_OH_AL_4/0_Zuzara_0_416_0_2_2_2_2_2_2_2_2_2_2_2_2_2_2_2_2_2_2_2_2_2_2_2_2_2_2_2_2_2

New Line.l(r:p1rdt453lv-p1rlv463) Units=km Length=0.0321111 bus1=p1rdt453lv.1.2 bus2=p1rlv463.1.2 switch=n enabled=y phases=2 Linecode=1P_OH_AL_4/0_Zuzara_0_416_0_2_2_2_2_2_2_2_2_2_2_2_2_2_2_2_2_2_2_2_2_2_2_2_2_2_2_2_2_2

New Line.l(r:p1rdt579lv-p1rlv593) Units=km Length=0.0843655 bus1=p1rdt579lv.1.2 bus2=p1rlv593.1.2 switch=n enabled=y phases=2 Linecode=1P_UG_AL_1/0_Brenau_0_416_0_2_2_2_2_2_2_2_2_2_2_2_2_2_2_2_2_2_2_2_2_2_2_2_2_2_2_2_2_2

New Line.l(r:p1rdt579lv-p1rlv8596) Units=km Length=0.0469836 bus1=p1rdt579lv.1.2 bus2=p1rlv8596.1.2 switch=n enabled=y phases=2 Linecode=1P_UG_AL_1/0_Brenau_0_416_0_2_2_2_2_2_2_2_2_2_2_2_2_2_2_2_2_2_2_2_2_2_2_2_2_2_2_2_2_2

New Line.l(r:p1rdm1354-p1rlv1952) Units=km Length=0.0856932 bus1=p1rdm1354.1.2 bus2=p1rlv1952.1.2 switch=n enabled=y phases=2 Linecode=1P_UG_AL_1/0_Brenau_0_416_0_2_2_2_2_2_2_2_2_2_2_2_2_2_2_2_2_2_2_2_2_2_2_2_2_2_2_2_2_2

New Line.l(r:p1rdm1354-p1rdt579lv) Units=km Length=0.0196323 bus1=p1rdt579lv.1.2 bus2=p1rdm1354.1.2 switch=n enabled=y phases=2 Linecode=1P_UG_AL_1/0_Brenau_0_416_0_2_2_2_2_2_2_2_2_2_2_2_2_2_2_2_2_2_2_2_2_2_2_2_2_2_2_2_2_2

New Line.l(r:p1rdm1355-p1rlv4508) Units=km Length=0.0854409 bus1=p1rdm1355.1.2 bus2=p1rlv4508.1.2 switch=n enabled=y phases=2 Linecode=1P_UG_AL_1/0_Brenau_0_416_0_2_2_2_2_2_2_2_2_2_2_2_2_2_2_2_2_2_2_2_2_2_2_2_2_2_2_2_2_2

New Line.l(r:p1rdm1355-p1rdt579lv) Units=km Length=0.0196255 bus1=p1rdt579lv.1.2 bus2=p1rdm1355.1.2 switch=n enabled=y phases=2 Linecode=1P_UG_AL_1/0_Brenau_0_416_0_2_2_2_2_2_2_2_2_2_2_2_2_2_2_2_2_2_2_2_2_2_2_2_2_2_2_2_2_2

New Line.l(r:p1rdm1358-p1rlv595) Units=km Length=0.0150238 bus1=p1rdm1358.1.2 bus2=p1rlv595.1.2 switch=n enabled=y phases=2 Linecode=1P_OH_AL_2/0_Rucina_0_416_0_2_2_2_2_2_2_2_2_2_2_2_2_2_2_2_2_2_2_2_2_2_2_2_2_2_2_2_2_2

New Line.l(r:p1rdm1358-p1rlv11046) Units=km Length=0.0417632 bus1=p1rdm1358.1.2 bus2=p1rlv11046.1.2 switch=n enabled=y phases=2 Linecode=1P_OH_AL_4/0_Zuzara_0_416_0_2_2_2_2_2_2_2_2_2_2_2_2_2_2_2_2_2_2_2_2_2_2_2_2_2_2_2_2_2

New Line.l(r:p1rdm1357-p1rlv594) Units=km Length=0.0237037 bus1=p1rdm1357.1.2 bus2=p1rlv594.1.2 switch=n enabled=y phases=2 Linecode=1P_OH_AL_2/0_Rucina_0_416_0_2_2_2_2_2_2_2_2_2_2_2_2_2_2_2_2_2_2_2_2_2_2_2_2_2_2_2_2_2

New Line.l(r:p1rdm1357-p1rdm1358) Units=km Length=0.0170025 bus1=p1rdm1358.1.2 bus2=p1rdm1357.1.2 switch=n enabled=y phases=2 Linecode=1P_OH_AL_2/0_Rucina_0_416_0_2_2_2_2_2_2_2_2_2_2_2_2_2_2_2_2_2_2_2_2_2_2_2_2_2_2_2_2_2

New Line.l(r:p1rdm1358-p1rdt580lv) Units=km Length=0.0170032 bus1=p1rdt580lv.1.2 bus2=p1rdm1358.1.2 switch=n enabled=y phases=2 Linecode=1P_OH_AL_2/0_Rucina_0_416_0_2_2_2_2_2_2_2_2_2_2_2_2_2_2_2_2_2_2_2_2_2_2_2_2_2_2_2_2_2

New Line.l(r:p1rdm1359-p1rlv10763) Units=km Length=0.0100846 bus1=p1rdm1359.1.2 bus2=p1rlv10763.1.2 switch=n enabled=y phases=2 Linecode=1P_OH_AL_2/0_Rucina_0_416_0_2_2_2_2_2_2_2_2_2_2_2_2_2_2_2_2_2_2_2_2_2_2_2_2_2_2_2_2_2

New Line.l(r:p1rdm1359-p1rdt580lv) Units=km Length=0.0857633 bus1=p1rdt580lv.1.2 bus2=p1rdm1359.1.2 switch=n enabled=y phases=2 Linecode=1P_OH_AL_4/0_Zuzara_0_416_0_2_2_2_2_2_2_2_2_2_2_2_2_2_2_2_2_2_2_2_2_2_2_2_2_2_2_2_2_2

New Line.l(r:p1rdt582lv-p1rlv597) Units=km Length=0.00678719 bus1=p1rdt582lv.1.2 bus2=p1rlv597.1.2 switch=n enabled=y phases=2 Linecode=1P_OH_AL_2/0_Rucina_0_416_0_2_2_2_2_2_2_2_2_2_2_2_2_2_2_2_2_2_2_2_2_2_2_2_2_2_2_2_2_2

New Line.l(r:p1rdt582lv-p1rlv6372) Units=km Length=0.024671100000000005 bus1=p1rdt582lv.1.2 bus2=p1rlv6372.1.2 switch=n enabled=y phases=2 Linecode=1P_OH_AL_2/0_Rucina_0_416_0_2_2_2_2_2_2_2_2_2_2_2_2_2_2_2_2_2_2_2_2_2_2_2_2_2_2_2_2_2

New Line.l(r:p1rdt582lv-p1rlv11195) Units=km Length=0.0314355 bus1=p1rdt582lv.1.2 bus2=p1rlv11195.1.2 switch=n enabled=y phases=2 Linecode=1P_OH_AL_4/0_Zuzara_0_416_0_2_2_2_2_2_2_2_2_2_2_2_2_2_2_2_2_2_2_2_2_2_2_2_2_2_2_2_2_2

New Line.l(r:p1rdt583lv-p1rlv10092) Units=km Length=0.0158894 bus1=p1rdt583lv.1.2 bus2=p1rlv10092.1.2 switch=n enabled=y phases=2 Linecode=1P_OH_AL_2/0_Rucina_0_416_0_2_2_2_2_2_2_2_2_2_2_2_2_2_2_2_2_2_2_2_2_2_2_2_2_2_2_2_2_2

New Line.l(r:p1rdm1367-p1rlv598) Units=km Length=0.0177857 bus1=p1rdm1367.1.2 bus2=p1rlv598.1.2 switch=n enabled=y phases=2 Linecode=1P_OH_AL_2/0_Rucina_0_416_0_2_2_2_2_2_2_2_2_2_2_2_2_2_2_2_2_2_2_2_2_2_2_2_2_2_2_2_2_2

New Line.l(r:p1rdm1367-p1rdt583lv) Units=km Length=0.017004 bus1=p1rdt583lv.1.2 bus2=p1rdm1367.1.2 switch=n enabled=y phases=2 Linecode=1P_OH_AL_2/0_Rucina_0_416_0_2_2_2_2_2_2_2_2_2_2_2_2_2_2_2_2_2_2_2_2_2_2_2_2_2_2_2_2_2

New Line.l(r:p1rdt584lv-p1rlv7699) Units=km Length=0.022570300000000005 bus1=p1rdt584lv.1.2 bus2=p1rlv7699.1.2 switch=n enabled=y phases=2 Linecode=1P_OH_AL_2/0_Rucina_0_416_0_2_2_2_2_2_2_2_2_2_2_2_2_2_2_2_2_2_2_2_2_2_2_2_2_2_2_2_2_2

New Line.l(r:p1rdm1369-p1rlv599) Units=km Length=0.0192539 bus1=p1rdm1369.1.2 bus2=p1rlv599.1.2 switch=n enabled=y phases=2 Linecode=1P_OH_AL_2/0_Rucina_0_416_0_2_2_2_2_2_2_2_2_2_2_2_2_2_2_2_2_2_2_2_2_2_2_2_2_2_2_2_2_2

New Line.l(r:p1rdm1369-p1rdt584lv) Units=km Length=0.0194147 bus1=p1rdt584lv.1.2 bus2=p1rdm1369.1.2 switch=n enabled=y phases=2 Linecode=1P_OH_AL_2/0_Rucina_0_416_0_2_2_2_2_2_2_2_2_2_2_2_2_2_2_2_2_2_2_2_2_2_2_2_2_2_2_2_2_2

New Line.l(r:p1rdm1370-p1rlv3411) Units=km Length=0.020269 bus1=p1rdm1370.1.2 bus2=p1rlv3411.1.2 switch=n enabled=y phases=2 Linecode=1P_OH_AL_2/0_Rucina_0_416_0_2_2_2_2_2_2_2_2_2_2_2_2_2_2_2_2_2_2_2_2_2_2_2_2_2_2_2_2_2

New Line.l(r:p1rdm1370-p1rlv11049) Units=km Length=0.022009 bus1=p1rdm1370.1.2 bus2=p1rlv11049.1.2 switch=n enabled=y phases=2 Linecode=1P_OH_AL_2/0_Rucina_0_416_0_2_2_2_2_2_2_2_2_2_2_2_2_2_2_2_2_2_2_2_2_2_2_2_2_2_2_2_2_2

New Line.l(r:p1rdm1370-p1rdt584lv) Units=km Length=0.0194147 bus1=p1rdt584lv.1.2 bus2=p1rdm1370.1.2 switch=n enabled=y phases=2 Linecode=1P_OH_AL_2/0_Rucina_0_416_0_2_2_2_2_2_2_2_2_2_2_2_2_2_2_2_2_2_2_2_2_2_2_2_2_2_2_2_2_2

New Line.l(r:p1rdt716lv-p1rlv748) Units=km Length=0.022099 bus1=p1rdt716lv.1.2 bus2=p1rlv748.1.2 switch=n enabled=y phases=2 Linecode=1P_OH_AL_2/0_Rucina_0_416_0_2_2_2_2_2_2_2_2_2_2_2_2_2_2_2_2_2_2_2_2_2_2_2_2_2_2_2_2_2

New Line.l(r:p1rdt716lv-p1rlv5460) Units=km Length=0.022099 bus1=p1rdt716lv.1.2 bus2=p1rlv5460.1.2 switch=n enabled=y phases=2 Linecode=1P_OH_AL_2/0_Rucina_0_416_0_2_2_2_2_2_2_2_2_2_2_2_2_2_2_2_2_2_2_2_2_2_2_2_2_2_2_2_2_2

New Line.l(r:p1rdt845lv-p1rlv885) Units=km Length=0.0377988 bus1=p1rdt845lv.1.2 bus2=p1rlv885.1.2 switch=n enabled=y phases=2 Linecode=1P_OH_AL_4/0_Zuzara_0_416_0_2_2_2_2_2_2_2_2_2_2_2_2_2_2_2_2_2_2_2_2_2_2_2_2_2_2_2_2_2

New Line.l(r:p1rdt845lv-p1rlv10482) Units=km Length=0.0530507 bus1=p1rdt845lv.1.2 bus2=p1rlv10482.1.2 switch=n enabled=y phases=2 Linecode=1P_OH_AL_4/0_Zuzara_0_416_0_2_2_2_2_2_2_2_2_2_2_2_2_2_2_2_2_2_2_2_2_2_2_2_2_2_2_2_2_2

New Line.l(r:p1rdt845lv-p1rlv10483) Units=km Length=0.0269769 bus1=p1rdt845lv.1.2 bus2=p1rlv10483.1.2 switch=n enabled=y phases=2 Linecode=1P_OH_AL_2/0_Rucina_0_416_0_2_2_2_2_2_2_2_2_2_2_2_2_2_2_2_2_2_2_2_2_2_2_2_2_2_2_2_2_2

New Line.l(r:p1rdt847lv-p1rlv889) Units=km Length=0.001 bus1=p1rdt847lv.1.2 bus2=p1rlv889.1.2 switch=n enabled=y phases=2 Linecode=1P_OH_AL_4_Periwinkle_0_416_0_2_2_2_2_2_2_2_2_2_2_2_2_2_2_2_2_2_2_2_2_2_2_2_2_2_2_2_2_2

New Line.l(r:p1rdt853lv-p1rlv895) Units=km Length=0.0521017 bus1=p1rdt853lv.1.2 bus2=p1rlv895.1.2 switch=n enabled=y phases=2 Linecode=1P_OH_AL_4/0_Zuzara_0_416_0_2_2_2_2_2_2_2_2_2_2_2_2_2_2_2_2_2_2_2_2_2_2_2_2_2_2_2_2_2

New Line.l(r:p1rdt853lv-p1rlv1808) Units=km Length=0.0150141 bus1=p1rdt853lv.1.2 bus2=p1rlv1808.1.2 switch=n enabled=y phases=2 Linecode=1P_OH_AL_2/0_Rucina_0_416_0_2_2_2_2_2_2_2_2_2_2_2_2_2_2_2_2_2_2_2_2_2_2_2_2_2_2_2_2_2

New Line.l(r:p1rdt853lv-p1rlv6129) Units=km Length=0.0321957 bus1=p1rdt853lv.1.2 bus2=p1rlv6129.1.2 switch=n enabled=y phases=2 Linecode=1P_OH_AL_4/0_Zuzara_0_416_0_2_2_2_2_2_2_2_2_2_2_2_2_2_2_2_2_2_2_2_2_2_2_2_2_2_2_2_2_2

New Line.l(r:p1rdt853lv-p1rlv13325) Units=km Length=0.0197786 bus1=p1rdt853lv.1.2 bus2=p1rlv13325.1.2 switch=n enabled=y phases=2 Linecode=1P_OH_AL_2/0_Rucina_0_416_0_2_2_2_2_2_2_2_2_2_2_2_2_2_2_2_2_2_2_2_2_2_2_2_2_2_2_2_2_2

New Line.l(r:p1rdm1946-p1rlv13073) Units=km Length=0.0244503 bus1=p1rdm1946.1.2 bus2=p1rlv13073.1.2 switch=n enabled=y phases=2 Linecode=1P_OH_AL_2/0_Rucina_0_416_0_2_2_2_2_2_2_2_2_2_2_2_2_2_2_2_2_2_2_2_2_2_2_2_2_2_2_2_2_2

New Line.l(r:p1rdm1946-p1rdt853lv) Units=km Length=0.0881211 bus1=p1rdt853lv.1.2 bus2=p1rdm1946.1.2 switch=n enabled=y phases=2 Linecode=1P_OH_AL_4/0_Zuzara_0_416_0_2_2_2_2_2_2_2_2_2_2_2_2_2_2_2_2_2_2_2_2_2_2_2_2_2_2_2_2_2

New Line.l(r:p1rdt973lv-p1rlv1025) Units=km Length=0.0271605 bus1=p1rdt973lv.1.2 bus2=p1rlv1025.1.2 switch=n enabled=y phases=2 Linecode=1P_OH_AL_4/0_Zuzara_0_416_0_2_2_2_2_2_2_2_2_2_2_2_2_2_2_2_2_2_2_2_2_2_2_2_2_2_2_2_2_2

New Line.l(r:p1rdt973lv-p1rlv7282) Units=km Length=0.0271605 bus1=p1rdt973lv.1.2 bus2=p1rlv7282.1.2 switch=n enabled=y phases=2 Linecode=1P_OH_AL_4/0_Zuzara_0_416_0_2_2_2_2_2_2_2_2_2_2_2_2_2_2_2_2_2_2_2_2_2_2_2_2_2_2_2_2_2

New Line.l(r:p1rdt1089lv-p1rlv3142) Units=km Length=0.100749 bus1=p1rdt1089lv.1.2 bus2=p1rlv3142.1.2 switch=n enabled=y phases=2 Linecode=1P_UG_AL_1/0_Brenau_0_416_0_2_2_2_2_2_2_2_2_2_2_2_2_2_2_2_2_2_2_2_2_2_2_2_2_2_2_2_2_2

New Line.l(r:p1rdm2432-p1rlv1151) Units=km Length=0.0197862 bus1=p1rdm2432.1.2 bus2=p1rlv1151.1.2 switch=n enabled=y phases=2 Linecode=1P_UG_AL_1/0_Brenau_0_416_0_2_2_2_2_2_2_2_2_2_2_2_2_2_2_2_2_2_2_2_2_2_2_2_2_2_2_2_2_2

New Line.l(r:p1rdm2432-p1rlv6868) Units=km Length=0.0696467 bus1=p1rdm2432.1.2 bus2=p1rlv6868.1.2 switch=n enabled=y phases=2 Linecode=1P_UG_AL_1/0_Brenau_0_416_0_2_2_2_2_2_2_2_2_2_2_2_2_2_2_2_2_2_2_2_2_2_2_2_2_2_2_2_2_2

New Line.l(r:p1rdm2432-p1rdt1089lv) Units=km Length=0.00981957 bus1=p1rdt1089lv.1.2 bus2=p1rdm2432.1.2 switch=n enabled=y phases=2 Linecode=1P_UG_AL_4/0_Sweetbriar_0_416_0_2_2_2_2_2_2_2_2_2_2_2_2_2_2_2_2_2_2_2_2_2_2_2_2_2_2_2_2_2

New Line.l(r:p1rdt1093lv-p1rlv6241) Units=km Length=0.0221243 bus1=p1rdt1093lv.1.2 bus2=p1rlv6241.1.2 switch=n enabled=y phases=2 Linecode=1P_OH_AL_2/0_Rucina_0_416_0_2_2_2_2_2_2_2_2_2_2_2_2_2_2_2_2_2_2_2_2_2_2_2_2_2_2_2_2_2

New Line.l(r:p1rdt1093lv-p1rlv7280) Units=km Length=0.019200100000000005 bus1=p1rdt1093lv.1.2 bus2=p1rlv7280.1.2 switch=n enabled=y phases=2 Linecode=1P_OH_AL_2/0_Rucina_0_416_0_2_2_2_2_2_2_2_2_2_2_2_2_2_2_2_2_2_2_2_2_2_2_2_2_2_2_2_2_2

New Line.l(r:p1rdm2440-p1rlv1155) Units=km Length=0.0131508 bus1=p1rdm2440.1.2 bus2=p1rlv1155.1.2 switch=n enabled=y phases=2 Linecode=1P_OH_AL_2/0_Rucina_0_416_0_2_2_2_2_2_2_2_2_2_2_2_2_2_2_2_2_2_2_2_2_2_2_2_2_2_2_2_2_2

New Line.l(r:p1rdm2440-p1rdt1093lv) Units=km Length=0.0199373 bus1=p1rdt1093lv.1.2 bus2=p1rdm2440.1.2 switch=n enabled=y phases=2 Linecode=1P_OH_AL_2/0_Rucina_0_416_0_2_2_2_2_2_2_2_2_2_2_2_2_2_2_2_2_2_2_2_2_2_2_2_2_2_2_2_2_2

New Line.l(r:p1rdm2443-p1rlv7960) Units=km Length=0.0227685 bus1=p1rdm2443.1.2 bus2=p1rlv7960.1.2 switch=n enabled=y phases=2 Linecode=1P_OH_AL_2/0_Rucina_0_416_0_2_2_2_2_2_2_2_2_2_2_2_2_2_2_2_2_2_2_2_2_2_2_2_2_2_2_2_2_2

New Line.l(r:p1rdm2443-p1rdt1093lv) Units=km Length=0.0199327 bus1=p1rdt1093lv.1.2 bus2=p1rdm2443.1.2 switch=n enabled=y phases=2 Linecode=1P_OH_AL_2/0_Rucina_0_416_0_2_2_2_2_2_2_2_2_2_2_2_2_2_2_2_2_2_2_2_2_2_2_2_2_2_2_2_2_2

New Line.l(r:p1rdt1094lv-p1rlv1156) Units=km Length=0.0236081 bus1=p1rdt1094lv.1.2 bus2=p1rlv1156.1.2 switch=n enabled=y phases=2 Linecode=1P_OH_AL_2/0_Rucina_0_416_0_2_2_2_2_2_2_2_2_2_2_2_2_2_2_2_2_2_2_2_2_2_2_2_2_2_2_2_2_2

New Line.l(r:p1rdt1094lv-p1rlv7281) Units=km Length=0.0241185 bus1=p1rdt1094lv.1.2 bus2=p1rlv7281.1.2 switch=n enabled=y phases=2 Linecode=1P_OH_AL_2/0_Rucina_0_416_0_2_2_2_2_2_2_2_2_2_2_2_2_2_2_2_2_2_2_2_2_2_2_2_2_2_2_2_2_2

New Line.l(r:p1rdm2446-p1rlv6619) Units=km Length=0.022461 bus1=p1rdm2446.1.2 bus2=p1rlv6619.1.2 switch=n enabled=y phases=2 Linecode=1P_OH_AL_2/0_Rucina_0_416_0_2_2_2_2_2_2_2_2_2_2_2_2_2_2_2_2_2_2_2_2_2_2_2_2_2_2_2_2_2

New Line.l(r:p1rdm2446-p1rdt1094lv) Units=km Length=0.059884700000000006 bus1=p1rdt1094lv.1.2 bus2=p1rdm2446.1.2 switch=n enabled=y phases=2 Linecode=1P_OH_AL_4/0_Zuzara_0_416_0_2_2_2_2_2_2_2_2_2_2_2_2_2_2_2_2_2_2_2_2_2_2_2_2_2_2_2_2_2

New Line.l(r:p1rdm2448-p1rlv7570) Units=km Length=0.0173022 bus1=p1rdm2448.1.2 bus2=p1rlv7570.1.2 switch=n enabled=y phases=2 Linecode=1P_OH_AL_2/0_Rucina_0_416_0_2_2_2_2_2_2_2_2_2_2_2_2_2_2_2_2_2_2_2_2_2_2_2_2_2_2_2_2_2

New Line.l(r:p1rdm2448-p1rdt1094lv) Units=km Length=0.0194818 bus1=p1rdt1094lv.1.2 bus2=p1rdm2448.1.2 switch=n enabled=y phases=2 Linecode=1P_OH_AL_2/0_Rucina_0_416_0_2_2_2_2_2_2_2_2_2_2_2_2_2_2_2_2_2_2_2_2_2_2_2_2_2_2_2_2_2

New Line.l(r:p1rdm2449-p1rlv12953) Units=km Length=0.013519 bus1=p1rdm2449.1.2 bus2=p1rlv12953.1.2 switch=n enabled=y phases=2 Linecode=1P_OH_AL_2/0_Rucina_0_416_0_2_2_2_2_2_2_2_2_2_2_2_2_2_2_2_2_2_2_2_2_2_2_2_2_2_2_2_2_2

New Line.l(r:p1rdm2445-p1rlv4217) Units=km Length=0.0210956 bus1=p1rdm2445.1.2 bus2=p1rlv4217.1.2 switch=n enabled=y phases=2 Linecode=1P_OH_AL_2/0_Rucina_0_416_0_2_2_2_2_2_2_2_2_2_2_2_2_2_2_2_2_2_2_2_2_2_2_2_2_2_2_2_2_2

New Line.l(r:p1rdm2445-p1rdm2449) Units=km Length=0.0187612 bus1=p1rdm2449.1.2 bus2=p1rdm2445.1.2 switch=n enabled=y phases=2 Linecode=1P_OH_AL_2/0_Rucina_0_416_0_2_2_2_2_2_2_2_2_2_2_2_2_2_2_2_2_2_2_2_2_2_2_2_2_2_2_2_2_2

New Line.l(r:p1rdm2449-p1rdt1094lv) Units=km Length=0.018752100000000004 bus1=p1rdt1094lv.1.2 bus2=p1rdm2449.1.2 switch=n enabled=y phases=2 Linecode=1P_OH_AL_2/0_Rucina_0_416_0_2_2_2_2_2_2_2_2_2_2_2_2_2_2_2_2_2_2_2_2_2_2_2_2_2_2_2_2_2

New Line.l(r:p1rdt1191lv-p1rlv1268) Units=km Length=0.0321985 bus1=p1rdt1191lv.1.2 bus2=p1rlv1268.1.2 switch=n enabled=y phases=2 Linecode=1P_UG_AL_1/0_Brenau_0_416_0_2_2_2_2_2_2_2_2_2_2_2_2_2_2_2_2_2_2_2_2_2_2_2_2_2_2_2_2_2

New Line.l(r:p1rdt1191lv-p1rlv5181) Units=km Length=0.0214149 bus1=p1rdt1191lv.1.2 bus2=p1rlv5181.1.2 switch=n enabled=y phases=2 Linecode=1P_UG_AL_1/0_Brenau_0_416_0_2_2_2_2_2_2_2_2_2_2_2_2_2_2_2_2_2_2_2_2_2_2_2_2_2_2_2_2_2

New Line.l(r:p1rdt1191lv-p1rlv5729) Units=km Length=0.0185493 bus1=p1rdt1191lv.1.2 bus2=p1rlv5729.1.2 switch=n enabled=y phases=2 Linecode=1P_UG_AL_1/0_Brenau_0_416_0_2_2_2_2_2_2_2_2_2_2_2_2_2_2_2_2_2_2_2_2_2_2_2_2_2_2_2_2_2

New Line.l(r:p1rdt1191lv-p1rlv9531) Units=km Length=0.0191097 bus1=p1rdt1191lv.1.2 bus2=p1rlv9531.1.2 switch=n enabled=y phases=2 Linecode=1P_UG_AL_1/0_Brenau_0_416_0_2_2_2_2_2_2_2_2_2_2_2_2_2_2_2_2_2_2_2_2_2_2_2_2_2_2_2_2_2

New Line.l(r:p1rdt1193lv-p1rlv1270) Units=km Length=0.001 bus1=p1rdt1193lv.1.2 bus2=p1rlv1270.1.2 switch=n enabled=y phases=2 Linecode=1P_OH_AL_4_Periwinkle_0_416_0_2_2_2_2_2_2_2_2_2_2_2_2_2_2_2_2_2_2_2_2_2_2_2_2_2_2_2_2_2

New Line.l(r:p1rdt1194lv-p1rlv1271) Units=km Length=0.001 bus1=p1rdt1194lv.1.2 bus2=p1rlv1271.1.2 switch=n enabled=y phases=2 Linecode=1P_OH_AL_4_Periwinkle_0_416_0_2_2_2_2_2_2_2_2_2_2_2_2_2_2_2_2_2_2_2_2_2_2_2_2_2_2_2_2_2

New Line.l(r:p1rdt1195lv-p1rlv1272) Units=km Length=0.0107204 bus1=p1rdt1195lv.1.2 bus2=p1rlv1272.1.2 switch=n enabled=y phases=2 Linecode=1P_OH_AL_2/0_Rucina_0_416_0_2_2_2_2_2_2_2_2_2_2_2_2_2_2_2_2_2_2_2_2_2_2_2_2_2_2_2_2_2

New Line.l(r:p1rdm2658-p1rlv13582) Units=km Length=0.0242338 bus1=p1rdm2658.1.2 bus2=p1rlv13582.1.2 switch=n enabled=y phases=2 Linecode=1P_OH_AL_2/0_Rucina_0_416_0_2_2_2_2_2_2_2_2_2_2_2_2_2_2_2_2_2_2_2_2_2_2_2_2_2_2_2_2_2

New Line.l(r:p1rdm2658-p1rdt1195lv) Units=km Length=0.0161457 bus1=p1rdt1195lv.1.2 bus2=p1rdm2658.1.2 switch=n enabled=y phases=2 Linecode=1P_OH_AL_2/0_Rucina_0_416_0_2_2_2_2_2_2_2_2_2_2_2_2_2_2_2_2_2_2_2_2_2_2_2_2_2_2_2_2_2

New Line.l(r:p1rdt1330lv-p1rlv9014) Units=km Length=0.0115517 bus1=p1rdt1330lv.1.2 bus2=p1rlv9014.1.2 switch=n enabled=y phases=2 Linecode=1P_OH_AL_2/0_Rucina_0_416_0_2_2_2_2_2_2_2_2_2_2_2_2_2_2_2_2_2_2_2_2_2_2_2_2_2_2_2_2_2

New Line.l(r:p1rdt1330lv-p1rlv13848) Units=km Length=0.0127886 bus1=p1rdt1330lv.1.2 bus2=p1rlv13848.1.2 switch=n enabled=y phases=2 Linecode=1P_OH_AL_2/0_Rucina_0_416_0_2_2_2_2_2_2_2_2_2_2_2_2_2_2_2_2_2_2_2_2_2_2_2_2_2_2_2_2_2

New Line.l(r:p1rdm2942-p1rlv1427) Units=km Length=0.025496200000000004 bus1=p1rdm2942.1.2 bus2=p1rlv1427.1.2 switch=n enabled=y phases=2 Linecode=1P_OH_AL_2/0_Rucina_0_416_0_2_2_2_2_2_2_2_2_2_2_2_2_2_2_2_2_2_2_2_2_2_2_2_2_2_2_2_2_2

New Line.l(r:p1rdm2942-p1rdt1330lv) Units=km Length=0.00739992 bus1=p1rdt1330lv.1.2 bus2=p1rdm2942.1.2 switch=n enabled=y phases=2 Linecode=1P_OH_AL_2/0_Rucina_0_416_0_2_2_2_2_2_2_2_2_2_2_2_2_2_2_2_2_2_2_2_2_2_2_2_2_2_2_2_2_2

New Line.l(r:p1rdt1331lv-p1rlv1428) Units=km Length=0.0334103 bus1=p1rdt1331lv.1.2 bus2=p1rlv1428.1.2 switch=n enabled=y phases=2 Linecode=1P_OH_AL_4/0_Zuzara_0_416_0_2_2_2_2_2_2_2_2_2_2_2_2_2_2_2_2_2_2_2_2_2_2_2_2_2_2_2_2_2

New Line.l(r:p1rdt1331lv-p1rlv12013) Units=km Length=0.0334103 bus1=p1rdt1331lv.1.2 bus2=p1rlv12013.1.2 switch=n enabled=y phases=2 Linecode=1P_OH_AL_4/0_Zuzara_0_416_0_2_2_2_2_2_2_2_2_2_2_2_2_2_2_2_2_2_2_2_2_2_2_2_2_2_2_2_2_2

New Line.l(r:p1rdm3187-p1rlv1555) Units=km Length=0.114126 bus1=p1rdm3187.1.2 bus2=p1rlv1555.1.2 switch=n enabled=y phases=2 Linecode=1P_OH_AL_4/0_Zuzara_0_416_0_2_2_2_2_2_2_2_2_2_2_2_2_2_2_2_2_2_2_2_2_2_2_2_2_2_2_2_2_2

New Line.l(r:p1rdm3187-p1rlv3406) Units=km Length=0.0452809 bus1=p1rdm3187.1.2 bus2=p1rlv3406.1.2 switch=n enabled=y phases=2 Linecode=1P_OH_AL_4/0_Zuzara_0_416_0_2_2_2_2_2_2_2_2_2_2_2_2_2_2_2_2_2_2_2_2_2_2_2_2_2_2_2_2_2

New Line.l(r:p1rdm3187-p1rdt1447lv) Units=km Length=0.0197365 bus1=p1rdt1447lv.1.2 bus2=p1rdm3187.1.2 switch=n enabled=y phases=2 Linecode=1P_OH_AL_2/0_Rucina_0_416_0_2_2_2_2_2_2_2_2_2_2_2_2_2_2_2_2_2_2_2_2_2_2_2_2_2_2_2_2_2

New Line.l(r:p1rdm3188-p1rlv3405) Units=km Length=0.0376561 bus1=p1rdm3188.1.2 bus2=p1rlv3405.1.2 switch=n enabled=y phases=2 Linecode=1P_OH_AL_4/0_Zuzara_0_416_0_2_2_2_2_2_2_2_2_2_2_2_2_2_2_2_2_2_2_2_2_2_2_2_2_2_2_2_2_2

New Line.l(r:p1rdm3188-p1rdt1447lv) Units=km Length=0.0197365 bus1=p1rdt1447lv.1.2 bus2=p1rdm3188.1.2 switch=n enabled=y phases=2 Linecode=1P_OH_AL_2/0_Rucina_0_416_0_2_2_2_2_2_2_2_2_2_2_2_2_2_2_2_2_2_2_2_2_2_2_2_2_2_2_2_2_2

New Line.l(r:p1rdt1448lv-p1rlv13069) Units=km Length=0.00866516 bus1=p1rdt1448lv.1.2 bus2=p1rlv13069.1.2 switch=n enabled=y phases=2 Linecode=1P_OH_AL_2/0_Rucina_0_416_0_2_2_2_2_2_2_2_2_2_2_2_2_2_2_2_2_2_2_2_2_2_2_2_2_2_2_2_2_2

New Line.l(r:p1rdm3190-p1rlv1556) Units=km Length=0.00853502 bus1=p1rdm3190.1.2 bus2=p1rlv1556.1.2 switch=n enabled=y phases=2 Linecode=1P_OH_AL_2/0_Rucina_0_416_0_2_2_2_2_2_2_2_2_2_2_2_2_2_2_2_2_2_2_2_2_2_2_2_2_2_2_2_2_2

New Line.l(r:p1rdm3190-p1rdt1448lv) Units=km Length=0.0169318 bus1=p1rdt1448lv.1.2 bus2=p1rdm3190.1.2 switch=n enabled=y phases=2 Linecode=1P_OH_AL_2/0_Rucina_0_416_0_2_2_2_2_2_2_2_2_2_2_2_2_2_2_2_2_2_2_2_2_2_2_2_2_2_2_2_2_2

New Line.l(r:p1rdm3191-p1rlv2900) Units=km Length=0.007300680000000001 bus1=p1rdm3191.1.2 bus2=p1rlv2900.1.2 switch=n enabled=y phases=2 Linecode=1P_OH_AL_2/0_Rucina_0_416_0_2_2_2_2_2_2_2_2_2_2_2_2_2_2_2_2_2_2_2_2_2_2_2_2_2_2_2_2_2

New Line.l(r:p1rdm3191-p1rdt1448lv) Units=km Length=0.0169318 bus1=p1rdt1448lv.1.2 bus2=p1rdm3191.1.2 switch=n enabled=y phases=2 Linecode=1P_OH_AL_2/0_Rucina_0_416_0_2_2_2_2_2_2_2_2_2_2_2_2_2_2_2_2_2_2_2_2_2_2_2_2_2_2_2_2_2

New Line.l(r:p1rdt1449lv-p1rlv1558) Units=km Length=0.0347026 bus1=p1rdt1449lv.1.2 bus2=p1rlv1558.1.2 switch=n enabled=y phases=2 Linecode=1P_OH_AL_4/0_Zuzara_0_416_0_2_2_2_2_2_2_2_2_2_2_2_2_2_2_2_2_2_2_2_2_2_2_2_2_2_2_2_2_2

New Line.l(r:p1rdt1449lv-p1rlv1809) Units=km Length=0.0186428 bus1=p1rdt1449lv.1.2 bus2=p1rlv1809.1.2 switch=n enabled=y phases=2 Linecode=1P_OH_AL_2/0_Rucina_0_416_0_2_2_2_2_2_2_2_2_2_2_2_2_2_2_2_2_2_2_2_2_2_2_2_2_2_2_2_2_2

New Line.l(r:p1rdt1450lv-p1rlv3413) Units=km Length=0.018281400000000003 bus1=p1rdt1450lv.1.2 bus2=p1rlv3413.1.2 switch=n enabled=y phases=2 Linecode=1P_OH_AL_2/0_Rucina_0_416_0_2_2_2_2_2_2_2_2_2_2_2_2_2_2_2_2_2_2_2_2_2_2_2_2_2_2_2_2_2

New Line.l(r:p1rdm3195-p1rlv1559) Units=km Length=0.0167492 bus1=p1rdm3195.1.2 bus2=p1rlv1559.1.2 switch=n enabled=y phases=2 Linecode=1P_OH_AL_2/0_Rucina_0_416_0_2_2_2_2_2_2_2_2_2_2_2_2_2_2_2_2_2_2_2_2_2_2_2_2_2_2_2_2_2

New Line.l(r:p1rdm3195-p1rdt1450lv) Units=km Length=0.0194771 bus1=p1rdt1450lv.1.2 bus2=p1rdm3195.1.2 switch=n enabled=y phases=2 Linecode=1P_OH_AL_2/0_Rucina_0_416_0_2_2_2_2_2_2_2_2_2_2_2_2_2_2_2_2_2_2_2_2_2_2_2_2_2_2_2_2_2

New Line.l(r:p1rdm3197-p1rlv4510) Units=km Length=0.0200194 bus1=p1rdm3197.1.2 bus2=p1rlv4510.1.2 switch=n enabled=y phases=2 Linecode=1P_OH_AL_2/0_Rucina_0_416_0_2_2_2_2_2_2_2_2_2_2_2_2_2_2_2_2_2_2_2_2_2_2_2_2_2_2_2_2_2

New Line.l(r:p1rdm3197-p1rdt1450lv) Units=km Length=0.019473 bus1=p1rdt1450lv.1.2 bus2=p1rdm3197.1.2 switch=n enabled=y phases=2 Linecode=1P_OH_AL_2/0_Rucina_0_416_0_2_2_2_2_2_2_2_2_2_2_2_2_2_2_2_2_2_2_2_2_2_2_2_2_2_2_2_2_2

New Line.l(r:p1rdt1451lv-p1rlv1560) Units=km Length=0.001 bus1=p1rdt1451lv.1.2 bus2=p1rlv1560.1.2 switch=n enabled=y phases=2 Linecode=1P_OH_AL_4_Periwinkle_0_416_0_2_2_2_2_2_2_2_2_2_2_2_2_2_2_2_2_2_2_2_2_2_2_2_2_2_2_2_2_2

New Line.l(r:p1rdt1543lv-p1rlv1675) Units=km Length=0.0127018 bus1=p1rdt1543lv.1.2 bus2=p1rlv1675.1.2 switch=n enabled=y phases=2 Linecode=1P_UG_AL_2/0_Converse_0_416_0_2_2_2_2_2_2_2_2_2_2_2_2_2_2_2_2_2_2_2_2_2_2_2_2_2_2_2_2_2

New Line.l(r:p1rdt1544lv-p1rlv1676) Units=km Length=0.0868012 bus1=p1rdt1544lv.1.2 bus2=p1rlv1676.1.2 switch=n enabled=y phases=2 Linecode=1P_OH_AL_4/0_Zuzara_0_416_0_2_2_2_2_2_2_2_2_2_2_2_2_2_2_2_2_2_2_2_2_2_2_2_2_2_2_2_2_2

New Line.l(r:p1rdt1544lv-p1rlv2631) Units=km Length=0.0271484 bus1=p1rdt1544lv.1.2 bus2=p1rlv2631.1.2 switch=n enabled=y phases=2 Linecode=1P_OH_AL_4/0_Zuzara_0_416_0_2_2_2_2_2_2_2_2_2_2_2_2_2_2_2_2_2_2_2_2_2_2_2_2_2_2_2_2_2

New Line.l(r:p1rdt1544lv-p1rlv9533) Units=km Length=0.0254013 bus1=p1rdt1544lv.1.2 bus2=p1rlv9533.1.2 switch=n enabled=y phases=2 Linecode=1P_OH_AL_2/0_Rucina_0_416_0_2_2_2_2_2_2_2_2_2_2_2_2_2_2_2_2_2_2_2_2_2_2_2_2_2_2_2_2_2

New Line.l(r:p1rdt1544lv-p1rlv12808) Units=km Length=0.057756 bus1=p1rdt1544lv.1.2 bus2=p1rlv12808.1.2 switch=n enabled=y phases=2 Linecode=1P_OH_AL_4/0_Zuzara_0_416_0_2_2_2_2_2_2_2_2_2_2_2_2_2_2_2_2_2_2_2_2_2_2_2_2_2_2_2_2_2

New Line.l(r:p1rdt1545lv-p1rlv7698) Units=km Length=0.0124221 bus1=p1rdt1545lv.1.2 bus2=p1rlv7698.1.2 switch=n enabled=y phases=2 Linecode=1P_OH_AL_2/0_Rucina_0_416_0_2_2_2_2_2_2_2_2_2_2_2_2_2_2_2_2_2_2_2_2_2_2_2_2_2_2_2_2_2

New Line.l(r:p1rdt1545lv-p1rlv8330) Units=km Length=0.00551318 bus1=p1rdt1545lv.1.2 bus2=p1rlv8330.1.2 switch=n enabled=y phases=2 Linecode=1P_OH_AL_2/0_Rucina_0_416_0_2_2_2_2_2_2_2_2_2_2_2_2_2_2_2_2_2_2_2_2_2_2_2_2_2_2_2_2_2

New Line.l(r:p1rdm3393-p1rlv1677) Units=km Length=0.0178451 bus1=p1rdm3393.1.2 bus2=p1rlv1677.1.2 switch=n enabled=y phases=2 Linecode=1P_OH_AL_2/0_Rucina_0_416_0_2_2_2_2_2_2_2_2_2_2_2_2_2_2_2_2_2_2_2_2_2_2_2_2_2_2_2_2_2

New Line.l(r:p1rdm3393-p1rdt1545lv) Units=km Length=0.0723997 bus1=p1rdt1545lv.1.2 bus2=p1rdm3393.1.2 switch=n enabled=y phases=2 Linecode=1P_OH_AL_4/0_Zuzara_0_416_0_2_2_2_2_2_2_2_2_2_2_2_2_2_2_2_2_2_2_2_2_2_2_2_2_2_2_2_2_2

New Line.l(r:p1rdm3394-p1rlv3947) Units=km Length=0.0203153 bus1=p1rdm3394.1.2 bus2=p1rlv3947.1.2 switch=n enabled=y phases=2 Linecode=1P_OH_AL_2/0_Rucina_0_416_0_2_2_2_2_2_2_2_2_2_2_2_2_2_2_2_2_2_2_2_2_2_2_2_2_2_2_2_2_2

New Line.l(r:p1rdm3394-p1rdt1545lv) Units=km Length=0.0182789 bus1=p1rdt1545lv.1.2 bus2=p1rdm3394.1.2 switch=n enabled=y phases=2 Linecode=1P_OH_AL_2/0_Rucina_0_416_0_2_2_2_2_2_2_2_2_2_2_2_2_2_2_2_2_2_2_2_2_2_2_2_2_2_2_2_2_2

New Line.l(r:p1rdt1655lv-p1rlv1805) Units=km Length=0.001 bus1=p1rdt1655lv.1.2 bus2=p1rlv1805.1.2 switch=n enabled=y phases=2 Linecode=1P_OH_AL_4_Periwinkle_0_416_0_2_2_2_2_2_2_2_2_2_2_2_2_2_2_2_2_2_2_2_2_2_2_2_2_2_2_2_2_2

New Line.l(r:p1rdt1657lv-p1rlv5464) Units=km Length=0.0174201 bus1=p1rdt1657lv.1.2 bus2=p1rlv5464.1.2 switch=n enabled=y phases=2 Linecode=1P_OH_AL_2/0_Rucina_0_416_0_2_2_2_2_2_2_2_2_2_2_2_2_2_2_2_2_2_2_2_2_2_2_2_2_2_2_2_2_2

New Line.l(r:p1rdm3636-p1rlv1810) Units=km Length=0.0205142 bus1=p1rdm3636.1.2 bus2=p1rlv1810.1.2 switch=n enabled=y phases=2 Linecode=1P_OH_AL_2/0_Rucina_0_416_0_2_2_2_2_2_2_2_2_2_2_2_2_2_2_2_2_2_2_2_2_2_2_2_2_2_2_2_2_2

New Line.l(r:p1rdm3636-p1rlv3560) Units=km Length=0.0168158 bus1=p1rdm3636.1.2 bus2=p1rlv3560.1.2 switch=n enabled=y phases=2 Linecode=1P_OH_AL_2/0_Rucina_0_416_0_2_2_2_2_2_2_2_2_2_2_2_2_2_2_2_2_2_2_2_2_2_2_2_2_2_2_2_2_2

New Line.l(r:p1rdm3636-p1rdt1657lv) Units=km Length=0.0199373 bus1=p1rdt1657lv.1.2 bus2=p1rdm3636.1.2 switch=n enabled=y phases=2 Linecode=1P_OH_AL_2/0_Rucina_0_416_0_2_2_2_2_2_2_2_2_2_2_2_2_2_2_2_2_2_2_2_2_2_2_2_2_2_2_2_2_2

New Line.l(r:p1rdm3639-p1rlv7279) Units=km Length=0.018068300000000002 bus1=p1rdm3639.1.2 bus2=p1rlv7279.1.2 switch=n enabled=y phases=2 Linecode=1P_OH_AL_2/0_Rucina_0_416_0_2_2_2_2_2_2_2_2_2_2_2_2_2_2_2_2_2_2_2_2_2_2_2_2_2_2_2_2_2

New Line.l(r:p1rdm3639-p1rdt1657lv) Units=km Length=0.0199284 bus1=p1rdt1657lv.1.2 bus2=p1rdm3639.1.2 switch=n enabled=y phases=2 Linecode=1P_OH_AL_2/0_Rucina_0_416_0_2_2_2_2_2_2_2_2_2_2_2_2_2_2_2_2_2_2_2_2_2_2_2_2_2_2_2_2_2

New Line.l(r:p1rdt1658lv-p1rlv1811) Units=km Length=0.0212818 bus1=p1rdt1658lv.1.2 bus2=p1rlv1811.1.2 switch=n enabled=y phases=2 Linecode=1P_OH_AL_2/0_Rucina_0_416_0_2_2_2_2_2_2_2_2_2_2_2_2_2_2_2_2_2_2_2_2_2_2_2_2_2_2_2_2_2

New Line.l(r:p1rdt1658lv-p1rlv5581) Units=km Length=0.0180536 bus1=p1rdt1658lv.1.2 bus2=p1rlv5581.1.2 switch=n enabled=y phases=2 Linecode=1P_OH_AL_2/0_Rucina_0_416_0_2_2_2_2_2_2_2_2_2_2_2_2_2_2_2_2_2_2_2_2_2_2_2_2_2_2_2_2_2

New Line.l(r:p1rdt1776lv-p1rlv13075) Units=km Length=0.017639200000000004 bus1=p1rdt1776lv.1.2 bus2=p1rlv13075.1.2 switch=n enabled=y phases=2 Linecode=1P_OH_AL_2/0_Rucina_0_416_0_2_2_2_2_2_2_2_2_2_2_2_2_2_2_2_2_2_2_2_2_2_2_2_2_2_2_2_2_2

New Line.l(r:p1rdm3858-p1rlv1953) Units=km Length=0.0163675 bus1=p1rdm3858.1.2 bus2=p1rlv1953.1.2 switch=n enabled=y phases=2 Linecode=1P_OH_AL_2/0_Rucina_0_416_0_2_2_2_2_2_2_2_2_2_2_2_2_2_2_2_2_2_2_2_2_2_2_2_2_2_2_2_2_2

New Line.l(r:p1rdm3858-p1rdt1776lv) Units=km Length=0.0194236 bus1=p1rdt1776lv.1.2 bus2=p1rdm3858.1.2 switch=n enabled=y phases=2 Linecode=1P_OH_AL_2/0_Rucina_0_416_0_2_2_2_2_2_2_2_2_2_2_2_2_2_2_2_2_2_2_2_2_2_2_2_2_2_2_2_2_2

New Line.l(r:p1rdt1777lv-p1rlv1954) Units=km Length=0.0167311 bus1=p1rdt1777lv.1.2 bus2=p1rlv1954.1.2 switch=n enabled=y phases=2 Linecode=1P_OH_AL_2/0_Rucina_0_416_0_2_2_2_2_2_2_2_2_2_2_2_2_2_2_2_2_2_2_2_2_2_2_2_2_2_2_2_2_2

New Line.l(r:p1rdt1778lv-p1rlv1955) Units=km Length=0.0343669 bus1=p1rdt1778lv.1.2 bus2=p1rlv1955.1.2 switch=n enabled=y phases=2 Linecode=1P_OH_AL_4/0_Zuzara_0_416_0_2_2_2_2_2_2_2_2_2_2_2_2_2_2_2_2_2_2_2_2_2_2_2_2_2_2_2_2_2
