New Line.l(r:p1udt164lv-p1ulv166) Units=km Length=0.046349100000000004 bus1=p1udt164lv.1.2 bus2=p1ulv166.1.2 switch=n enabled=y phases=2 Linecode=1P_OH_AL_4/0_Zuzara_0_416_0_2_2_2_2

New Line.l(r:p1udt164lv-p1ulv25491) Units=km Length=0.0188003 bus1=p1udt164lv.1.2 bus2=p1ulv25491.1.2 switch=n enabled=y phases=2 Linecode=1P_OH_AL_2/0_Rucina_0_416_0_2_2_2_2

New Line.l(r:p1udt164lv-p1ulv29260) Units=km Length=0.006366590000000001 bus1=p1udt164lv.1.2 bus2=p1ulv29260.1.2 switch=n enabled=y phases=2 Linecode=1P_OH_AL_2/0_Rucina_0_416_0_2_2_2_2

New Line.l(r:p1udt164lv-p1ulv62439) Units=km Length=0.0441121 bus1=p1udt164lv.1.2 bus2=p1ulv62439.1.2 switch=n enabled=y phases=2 Linecode=1P_OH_AL_4/0_Zuzara_0_416_0_2_2_2_2

New Line.l(r:p1udt165lv-p1ulv167) Units=km Length=0.057678 bus1=p1udt165lv.1.2 bus2=p1ulv167.1.2 switch=n enabled=y phases=2 Linecode=1P_OH_AL_4/0_Zuzara_0_416_0_2_2_2_2

New Line.l(r:p1udt171lv-p1ulv173) Units=km Length=0.0211744 bus1=p1udt171lv.1.2 bus2=p1ulv173.1.2 switch=n enabled=y phases=2 Linecode=1P_OH_AL_2/0_Rucina_0_416_0_2_2_2_2

New Line.l(r:p1udm550-p1ulv51947) Units=km Length=0.0197624 bus1=p1udm550.1.2 bus2=p1ulv51947.1.2 switch=n enabled=y phases=2 Linecode=1P_OH_AL_2/0_Rucina_0_416_0_2_2_2_2

New Line.l(r:p1udm550-p1udt171lv) Units=km Length=0.01901 bus1=p1udt171lv.1.2 bus2=p1udm550.1.2 switch=n enabled=y phases=2 Linecode=1P_OH_AL_2/0_Rucina_0_416_0_2_2_2_2

New Line.l(r:p1udt173lv-p1ulv175) Units=km Length=0.0147166 bus1=p1udt173lv.1.2 bus2=p1ulv175.1.2 switch=n enabled=y phases=2 Linecode=1P_UG_AL_1/0_Brenau_0_416_0_2_2_2_2

New Line.l(r:p1udt173lv-p1ulv38791) Units=km Length=0.0162841 bus1=p1udt173lv.1.2 bus2=p1ulv38791.1.2 switch=n enabled=y phases=2 Linecode=1P_UG_AL_1/0_Brenau_0_416_0_2_2_2_2

New Line.l(r:p1udm557-p1ulv1443) Units=km Length=0.0154098 bus1=p1udm557.1.2 bus2=p1ulv1443.1.2 switch=n enabled=y phases=2 Linecode=1P_UG_AL_1/0_Brenau_0_416_0_2_2_2_2

New Line.l(r:p1udm557-p1udt173lv) Units=km Length=0.009386000000000002 bus1=p1udt173lv.1.2 bus2=p1udm557.1.2 switch=n enabled=y phases=2 Linecode=1P_UG_AL_1/0_Brenau_0_416_0_2_2_2_2

New Line.l(r:p1udm558-p1ulv10881) Units=km Length=0.0160672 bus1=p1udm558.1.2 bus2=p1ulv10881.1.2 switch=n enabled=y phases=2 Linecode=1P_UG_AL_1/0_Brenau_0_416_0_2_2_2_2

New Line.l(r:p1udm558-p1udt173lv) Units=km Length=0.0195887 bus1=p1udt173lv.1.2 bus2=p1udm558.1.2 switch=n enabled=y phases=2 Linecode=1P_UG_AL_1/0_Brenau_0_416_0_2_2_2_2

New Line.l(r:p1udt174lv-p1ulv22267) Units=km Length=0.0161697 bus1=p1udt174lv.1.2 bus2=p1ulv22267.1.2 switch=n enabled=y phases=2 Linecode=1P_UG_AL_1/0_Brenau_0_416_0_2_2_2_2

New Line.l(r:p1udm560-p1ulv176) Units=km Length=0.0160148 bus1=p1udm560.1.2 bus2=p1ulv176.1.2 switch=n enabled=y phases=2 Linecode=1P_UG_AL_1/0_Brenau_0_416_0_2_2_2_2

New Line.l(r:p1udm560-p1udt174lv) Units=km Length=0.0200902 bus1=p1udt174lv.1.2 bus2=p1udm560.1.2 switch=n enabled=y phases=2 Linecode=1P_UG_AL_1/0_Brenau_0_416_0_2_2_2_2

New Line.l(r:p1udm561-p1ulv19108) Units=km Length=0.0192289 bus1=p1udm561.1.2 bus2=p1ulv19108.1.2 switch=n enabled=y phases=2 Linecode=1P_UG_AL_1/0_Brenau_0_416_0_2_2_2_2

New Line.l(r:p1udm561-p1udt174lv) Units=km Length=0.00709637 bus1=p1udt174lv.1.2 bus2=p1udm561.1.2 switch=n enabled=y phases=2 Linecode=1P_UG_AL_1/0_Brenau_0_416_0_2_2_2_2

New Line.l(r:p1udt249lv-p1ulv252) Units=km Length=0.0164091 bus1=p1udt249lv.1.2 bus2=p1ulv252.1.2 switch=n enabled=y phases=2 Linecode=1P_OH_AL_2/0_Rucina_0_416_0_2_2_2_2

New Line.l(r:p1udt249lv-p1ulv24919) Units=km Length=0.0176847 bus1=p1udt249lv.1.2 bus2=p1ulv24919.1.2 switch=n enabled=y phases=2 Linecode=1P_OH_AL_2/0_Rucina_0_416_0_2_2_2_2

New Line.l(r:p1udm862-p1ulv57598) Units=km Length=0.0157358 bus1=p1udm862.1.2 bus2=p1ulv57598.1.2 switch=n enabled=y phases=2 Linecode=1P_OH_AL_2/0_Rucina_0_416_0_2_2_2_2

New Line.l(r:p1udm862-p1udt249lv) Units=km Length=0.0186557 bus1=p1udt249lv.1.2 bus2=p1udm862.1.2 switch=n enabled=y phases=2 Linecode=1P_OH_AL_2/0_Rucina_0_416_0_2_2_2_2

New Line.l(r:p1udt252lv-p1ulv58194) Units=km Length=0.0142035 bus1=p1udt252lv.1.2 bus2=p1ulv58194.1.2 switch=n enabled=y phases=2 Linecode=1P_UG_AL_2/0_Converse_0_416_0_2_2_2_2

New Line.l(r:p1udm874-p1ulv255) Units=km Length=0.0162747 bus1=p1udm874.1.2 bus2=p1ulv255.1.2 switch=n enabled=y phases=2 Linecode=1P_UG_AL_2/0_Converse_0_416_0_2_2_2_2

New Line.l(r:p1udm874-p1udt252lv) Units=km Length=0.00964243 bus1=p1udt252lv.1.2 bus2=p1udm874.1.2 switch=n enabled=y phases=2 Linecode=1P_UG_AL_2/0_Converse_0_416_0_2_2_2_2

New Line.l(r:p1udm876-p1ulv256) Units=km Length=0.0130631 bus1=p1udm876.1.2 bus2=p1ulv256.1.2 switch=n enabled=y phases=2 Linecode=1P_UG_AL_1/0_Brenau_0_416_0_2_2_2_2

New Line.l(r:p1udm880-p1ulv38212) Units=km Length=0.014308 bus1=p1udm880.1.2 bus2=p1ulv38212.1.2 switch=n enabled=y phases=2 Linecode=1P_UG_AL_1/0_Brenau_0_416_0_2_2_2_2

New Line.l(r:p1udm876-p1udm880) Units=km Length=0.0150221 bus1=p1udm876.1.2 bus2=p1udm880.1.2 switch=n enabled=y phases=2 Linecode=1P_UG_AL_1/0_Brenau_0_416_0_2_2_2_2

New Line.l(r:p1udm876-p1udt253lv) Units=km Length=0.006474030000000001 bus1=p1udt253lv.1.2 bus2=p1udm876.1.2 switch=n enabled=y phases=2 Linecode=1P_UG_AL_4/0_Sweetbriar_0_416_0_2_2_2_2

New Line.l(r:p1udm879-p1ulv25562) Units=km Length=0.015783 bus1=p1udm879.1.2 bus2=p1ulv25562.1.2 switch=n enabled=y phases=2 Linecode=1P_UG_AL_1/0_Brenau_0_416_0_2_2_2_2

New Line.l(r:p1udm877-p1ulv2806) Units=km Length=0.0144765 bus1=p1udm877.1.2 bus2=p1ulv2806.1.2 switch=n enabled=y phases=2 Linecode=1P_UG_AL_1/0_Brenau_0_416_0_2_2_2_2

New Line.l(r:p1udm878-p1ulv17866) Units=km Length=0.0119225 bus1=p1udm878.1.2 bus2=p1ulv17866.1.2 switch=n enabled=y phases=2 Linecode=1P_UG_AL_1/0_Brenau_0_416_0_2_2_2_2

New Line.l(r:p1udm877-p1udm878) Units=km Length=0.00836135 bus1=p1udm877.1.2 bus2=p1udm878.1.2 switch=n enabled=y phases=2 Linecode=1P_UG_AL_1/0_Brenau_0_416_0_2_2_2_2

New Line.l(r:p1udm877-p1udm879) Units=km Length=0.00836135 bus1=p1udm879.1.2 bus2=p1udm877.1.2 switch=n enabled=y phases=2 Linecode=1P_UG_AL_4/0_Sweetbriar_0_416_0_2_2_2_2

New Line.l(r:p1udm879-p1udt253lv) Units=km Length=0.006474030000000001 bus1=p1udt253lv.1.2 bus2=p1udm879.1.2 switch=n enabled=y phases=2 Linecode=1P_UG_AL_4/0_Sweetbriar_0_416_0_2_2_2_2

New Line.l(r:p1udt255lv-p1ulv258) Units=km Length=0.0121895 bus1=p1udt255lv.1.2 bus2=p1ulv258.1.2 switch=n enabled=y phases=2 Linecode=1P_UG_AL_1/0_Brenau_0_416_0_2_2_2_2

New Line.l(r:p1udm885-p1ulv40137) Units=km Length=0.0144903 bus1=p1udm885.1.2 bus2=p1ulv40137.1.2 switch=n enabled=y phases=2 Linecode=1P_UG_AL_1/0_Brenau_0_416_0_2_2_2_2

New Line.l(r:p1udm885-p1udt255lv) Units=km Length=0.00697106 bus1=p1udt255lv.1.2 bus2=p1udm885.1.2 switch=n enabled=y phases=2 Linecode=1P_UG_AL_1/0_Brenau_0_416_0_2_2_2_2

New Line.l(r:p1udm886-p1ulv49517) Units=km Length=0.0157685 bus1=p1udm886.1.2 bus2=p1ulv49517.1.2 switch=n enabled=y phases=2 Linecode=1P_UG_AL_1/0_Brenau_0_416_0_2_2_2_2

New Line.l(r:p1udm886-p1udt255lv) Units=km Length=0.00860277 bus1=p1udt255lv.1.2 bus2=p1udm886.1.2 switch=n enabled=y phases=2 Linecode=1P_UG_AL_1/0_Brenau_0_416_0_2_2_2_2

New Line.l(r:p1udm887-p1ulv259) Units=km Length=0.0155346 bus1=p1udm887.1.2 bus2=p1ulv259.1.2 switch=n enabled=y phases=2 Linecode=1P_UG_AL_2/0_Converse_0_416_0_2_2_2_2

New Line.l(r:p1udm889-p1ulv15301) Units=km Length=0.0160852 bus1=p1udm889.1.2 bus2=p1ulv15301.1.2 switch=n enabled=y phases=2 Linecode=1P_UG_AL_1/0_Brenau_0_416_0_2_2_2_2

New Line.l(r:p1udm887-p1udm889) Units=km Length=0.0065911 bus1=p1udm887.1.2 bus2=p1udm889.1.2 switch=n enabled=y phases=2 Linecode=1P_UG_AL_1/0_Brenau_0_416_0_2_2_2_2

New Line.l(r:p1udm887-p1udt256lv) Units=km Length=0.016446 bus1=p1udt256lv.1.2 bus2=p1udm887.1.2 switch=n enabled=y phases=2 Linecode=1P_UG_AL_4/0_Sweetbriar_0_416_0_2_2_2_2

New Line.l(r:p1udm890-p1ulv26838) Units=km Length=0.0148391 bus1=p1udm890.1.2 bus2=p1ulv26838.1.2 switch=n enabled=y phases=2 Linecode=1P_UG_AL_1/0_Brenau_0_416_0_2_2_2_2

New Line.l(r:p1udm890-p1ulv31219) Units=km Length=0.01522 bus1=p1udm890.1.2 bus2=p1ulv31219.1.2 switch=n enabled=y phases=2 Linecode=1P_UG_AL_1/0_Brenau_0_416_0_2_2_2_2

New Line.l(r:p1udm888-p1ulv4679) Units=km Length=0.0158056 bus1=p1udm888.1.2 bus2=p1ulv4679.1.2 switch=n enabled=y phases=2 Linecode=1P_UG_AL_1/0_Brenau_0_416_0_2_2_2_2

New Line.l(r:p1udm888-p1udm890) Units=km Length=0.00801155 bus1=p1udm890.1.2 bus2=p1udm888.1.2 switch=n enabled=y phases=2 Linecode=1P_UG_AL_1/0_Brenau_0_416_0_2_2_2_2

New Line.l(r:p1udm890-p1udt256lv) Units=km Length=0.00801102 bus1=p1udt256lv.1.2 bus2=p1udm890.1.2 switch=n enabled=y phases=2 Linecode=1P_UG_AL_4/0_Sweetbriar_0_416_0_2_2_2_2

New Line.l(r:p1udt257lv-p1ulv50125) Units=km Length=0.014806300000000001 bus1=p1udt257lv.1.2 bus2=p1ulv50125.1.2 switch=n enabled=y phases=2 Linecode=1P_UG_AL_1/0_Brenau_0_416_0_2_2_2_2

New Line.l(r:p1udm893-p1ulv21758) Units=km Length=0.0159101 bus1=p1udm893.1.2 bus2=p1ulv21758.1.2 switch=n enabled=y phases=2 Linecode=1P_UG_AL_1/0_Brenau_0_416_0_2_2_2_2

New Line.l(r:p1udm893-p1ulv24924) Units=km Length=0.0151376 bus1=p1udm893.1.2 bus2=p1ulv24924.1.2 switch=n enabled=y phases=2 Linecode=1P_UG_AL_1/0_Brenau_0_416_0_2_2_2_2

New Line.l(r:p1udm893-p1udt257lv) Units=km Length=0.009574390000000002 bus1=p1udt257lv.1.2 bus2=p1udm893.1.2 switch=n enabled=y phases=2 Linecode=1P_UG_AL_4/0_Sweetbriar_0_416_0_2_2_2_2

New Line.l(r:p1udm895-p1ulv47696) Units=km Length=0.0168506 bus1=p1udm895.1.2 bus2=p1ulv47696.1.2 switch=n enabled=y phases=2 Linecode=1P_UG_AL_1/0_Brenau_0_416_0_2_2_2_2

New Line.l(r:p1udm892-p1ulv260) Units=km Length=0.0159806 bus1=p1udm892.1.2 bus2=p1ulv260.1.2 switch=n enabled=y phases=2 Linecode=1P_UG_AL_1/0_Brenau_0_416_0_2_2_2_2

New Line.l(r:p1udm892-p1udm895) Units=km Length=0.009574390000000002 bus1=p1udm895.1.2 bus2=p1udm892.1.2 switch=n enabled=y phases=2 Linecode=1P_UG_AL_1/0_Brenau_0_416_0_2_2_2_2

New Line.l(r:p1udm895-p1udt257lv) Units=km Length=0.00957293 bus1=p1udt257lv.1.2 bus2=p1udm895.1.2 switch=n enabled=y phases=2 Linecode=1P_UG_AL_4/0_Sweetbriar_0_416_0_2_2_2_2

New Line.l(r:p1udm897-p1ulv261) Units=km Length=0.0154371 bus1=p1udm897.1.2 bus2=p1ulv261.1.2 switch=n enabled=y phases=2 Linecode=1P_UG_AL_1/0_Brenau_0_416_0_2_2_2_2

New Line.l(r:p1udm897-p1ulv10953) Units=km Length=0.0168835 bus1=p1udm897.1.2 bus2=p1ulv10953.1.2 switch=n enabled=y phases=2 Linecode=1P_UG_AL_1/0_Brenau_0_416_0_2_2_2_2

New Line.l(r:p1udm897-p1udt258lv) Units=km Length=0.009574390000000002 bus1=p1udt258lv.1.2 bus2=p1udm897.1.2 switch=n enabled=y phases=2 Linecode=1P_UG_AL_4/0_Sweetbriar_0_416_0_2_2_2_2

New Line.l(r:p1udm899-p1ulv35101) Units=km Length=0.0154596 bus1=p1udm899.1.2 bus2=p1ulv35101.1.2 switch=n enabled=y phases=2 Linecode=1P_UG_AL_1/0_Brenau_0_416_0_2_2_2_2

New Line.l(r:p1udm899-p1ulv53307) Units=km Length=0.0157274 bus1=p1udm899.1.2 bus2=p1ulv53307.1.2 switch=n enabled=y phases=2 Linecode=1P_UG_AL_1/0_Brenau_0_416_0_2_2_2_2

New Line.l(r:p1udm899-p1udt258lv) Units=km Length=0.00957293 bus1=p1udt258lv.1.2 bus2=p1udm899.1.2 switch=n enabled=y phases=2 Linecode=1P_UG_AL_4/0_Sweetbriar_0_416_0_2_2_2_2

New Line.l(r:p1udm901-p1ulv262) Units=km Length=0.0168562 bus1=p1udm901.1.2 bus2=p1ulv262.1.2 switch=n enabled=y phases=2 Linecode=1P_UG_AL_1/0_Brenau_0_416_0_2_2_2_2

New Line.l(r:p1udm901-p1ulv63704) Units=km Length=0.0143262 bus1=p1udm901.1.2 bus2=p1ulv63704.1.2 switch=n enabled=y phases=2 Linecode=1P_UG_AL_1/0_Brenau_0_416_0_2_2_2_2

New Line.l(r:p1udm901-p1udt259lv) Units=km Length=0.00951483 bus1=p1udt259lv.1.2 bus2=p1udm901.1.2 switch=n enabled=y phases=2 Linecode=1P_UG_AL_4/0_Sweetbriar_0_416_0_2_2_2_2

New Line.l(r:p1udm903-p1ulv50127) Units=km Length=0.0164712 bus1=p1udm903.1.2 bus2=p1ulv50127.1.2 switch=n enabled=y phases=2 Linecode=1P_UG_AL_1/0_Brenau_0_416_0_2_2_2_2

New Line.l(r:p1udm903-p1ulv63778) Units=km Length=0.015043 bus1=p1udm903.1.2 bus2=p1ulv63778.1.2 switch=n enabled=y phases=2 Linecode=1P_UG_AL_1/0_Brenau_0_416_0_2_2_2_2

New Line.l(r:p1udm902-p1ulv16597) Units=km Length=0.0162621 bus1=p1udm902.1.2 bus2=p1ulv16597.1.2 switch=n enabled=y phases=2 Linecode=1P_UG_AL_1/0_Brenau_0_416_0_2_2_2_2

New Line.l(r:p1udm902-p1udm903) Units=km Length=0.00951483 bus1=p1udm903.1.2 bus2=p1udm902.1.2 switch=n enabled=y phases=2 Linecode=1P_UG_AL_1/0_Brenau_0_416_0_2_2_2_2

New Line.l(r:p1udm903-p1udt259lv) Units=km Length=0.00950493 bus1=p1udt259lv.1.2 bus2=p1udm903.1.2 switch=n enabled=y phases=2 Linecode=1P_UG_AL_4/0_Sweetbriar_0_416_0_2_2_2_2

New Line.l(r:p1udt264lv-p1ulv267) Units=km Length=0.0167487 bus1=p1udt264lv.1.2 bus2=p1ulv267.1.2 switch=n enabled=y phases=2 Linecode=1P_UG_AL_1/0_Brenau_0_416_0_2_2_2_2

New Line.l(r:p1udm926-p1ulv16608) Units=km Length=0.0154087 bus1=p1udm926.1.2 bus2=p1ulv16608.1.2 switch=n enabled=y phases=2 Linecode=1P_UG_AL_1/0_Brenau_0_416_0_2_2_2_2

New Line.l(r:p1udm926-p1udt264lv) Units=km Length=0.00964867 bus1=p1udt264lv.1.2 bus2=p1udm926.1.2 switch=n enabled=y phases=2 Linecode=1P_UG_AL_1/0_Brenau_0_416_0_2_2_2_2

New Line.l(r:p1udm927-p1ulv17243) Units=km Length=0.0145073 bus1=p1udm927.1.2 bus2=p1ulv17243.1.2 switch=n enabled=y phases=2 Linecode=1P_UG_AL_1/0_Brenau_0_416_0_2_2_2_2

New Line.l(r:p1udm927-p1udt264lv) Units=km Length=0.00965487 bus1=p1udt264lv.1.2 bus2=p1udm927.1.2 switch=n enabled=y phases=2 Linecode=1P_UG_AL_1/0_Brenau_0_416_0_2_2_2_2

New Line.l(r:p1udm2879-p1ulv803) Units=km Length=0.0158492 bus1=p1udm2879.1.2 bus2=p1ulv803.1.2 switch=n enabled=y phases=2 Linecode=1P_UG_AL_1/0_Brenau_0_416_0_2_2_2_2

New Line.l(r:p1udm2879-p1udt793lv) Units=km Length=0.00904346 bus1=p1udt793lv.1.2 bus2=p1udm2879.1.2 switch=n enabled=y phases=2 Linecode=1P_UG_AL_1/0_Brenau_0_416_0_2_2_2_2

New Line.l(r:p1udm2880-p1ulv31134) Units=km Length=0.0161452 bus1=p1udm2880.1.2 bus2=p1ulv31134.1.2 switch=n enabled=y phases=2 Linecode=1P_UG_AL_1/0_Brenau_0_416_0_2_2_2_2

New Line.l(r:p1udm2880-p1udt793lv) Units=km Length=0.0180869 bus1=p1udt793lv.1.2 bus2=p1udm2880.1.2 switch=n enabled=y phases=2 Linecode=1P_UG_AL_1/0_Brenau_0_416_0_2_2_2_2

New Line.l(r:p1udt799lv-p1ulv809) Units=km Length=0.013594900000000002 bus1=p1udt799lv.1.2 bus2=p1ulv809.1.2 switch=n enabled=y phases=2 Linecode=1P_UG_AL_1/0_Brenau_0_416_0_2_2_2_2

New Line.l(r:p1udt801lv-p1ulv12758) Units=km Length=0.0351478 bus1=p1udt801lv.1.2 bus2=p1ulv12758.1.2 switch=n enabled=y phases=2 Linecode=1P_OH_AL_4/0_Zuzara_0_416_0_2_2_2_2

New Line.l(r:p1udt801lv-p1ulv17171) Units=km Length=0.0913712 bus1=p1udt801lv.1.2 bus2=p1ulv17171.1.2 switch=n enabled=y phases=2 Linecode=1P_OH_AL_4/0_Zuzara_0_416_0_2_2_2_2

New Line.l(r:p1udm2910-p1ulv811) Units=km Length=0.0120496 bus1=p1udm2910.1.2 bus2=p1ulv811.1.2 switch=n enabled=y phases=2 Linecode=1P_OH_AL_2/0_Rucina_0_416_0_2_2_2_2

New Line.l(r:p1udm2910-p1udt801lv) Units=km Length=0.0229623 bus1=p1udt801lv.1.2 bus2=p1udm2910.1.2 switch=n enabled=y phases=2 Linecode=1P_OH_AL_2/0_Rucina_0_416_0_2_2_2_2

New Line.l(r:p1udt805lv-p1ulv815) Units=km Length=0.050949 bus1=p1udt805lv.1.2 bus2=p1ulv815.1.2 switch=n enabled=y phases=2 Linecode=1P_OH_AL_4/0_Zuzara_0_416_0_2_2_2_2

New Line.l(r:p1udm3155-p1ulv879) Units=km Length=0.0168102 bus1=p1udm3155.1.2 bus2=p1ulv879.1.2 switch=n enabled=y phases=2 Linecode=1P_UG_AL_1/0_Brenau_0_416_0_2_2_2_2

New Line.l(r:p1udm3155-p1udt865lv) Units=km Length=0.0214297 bus1=p1udt865lv.1.2 bus2=p1udm3155.1.2 switch=n enabled=y phases=2 Linecode=1P_UG_AL_1/0_Brenau_0_416_0_2_2_2_2

New Line.l(r:p1udm3156-p1ulv60632) Units=km Length=0.0129264 bus1=p1udm3156.1.2 bus2=p1ulv60632.1.2 switch=n enabled=y phases=2 Linecode=1P_UG_AL_1/0_Brenau_0_416_0_2_2_2_2

New Line.l(r:p1udm3156-p1ulv63166) Units=km Length=0.0175224 bus1=p1udm3156.1.2 bus2=p1ulv63166.1.2 switch=n enabled=y phases=2 Linecode=1P_UG_AL_1/0_Brenau_0_416_0_2_2_2_2

New Line.l(r:p1udm3156-p1udt865lv) Units=km Length=0.00911748 bus1=p1udt865lv.1.2 bus2=p1udm3156.1.2 switch=n enabled=y phases=2 Linecode=1P_UG_AL_4/0_Sweetbriar_0_416_0_2_2_2_2

New Line.l(r:p1udt866lv-p1ulv35097) Units=km Length=0.016711 bus1=p1udt866lv.1.2 bus2=p1ulv35097.1.2 switch=n enabled=y phases=2 Linecode=1P_UG_AL_1/0_Brenau_0_416_0_2_2_2_2

New Line.l(r:p1udm3159-p1ulv4677) Units=km Length=0.0150158 bus1=p1udm3159.1.2 bus2=p1ulv4677.1.2 switch=n enabled=y phases=2 Linecode=1P_UG_AL_1/0_Brenau_0_416_0_2_2_2_2

New Line.l(r:p1udm3158-p1ulv880) Units=km Length=0.0165618 bus1=p1udm3158.1.2 bus2=p1ulv880.1.2 switch=n enabled=y phases=2 Linecode=1P_UG_AL_1/0_Brenau_0_416_0_2_2_2_2

New Line.l(r:p1udm3158-p1udm3159) Units=km Length=0.00506123 bus1=p1udm3159.1.2 bus2=p1udm3158.1.2 switch=n enabled=y phases=2 Linecode=1P_UG_AL_1/0_Brenau_0_416_0_2_2_2_2

New Line.l(r:p1udm3159-p1udt866lv) Units=km Length=0.0127243 bus1=p1udt866lv.1.2 bus2=p1udm3159.1.2 switch=n enabled=y phases=2 Linecode=1P_UG_AL_4/0_Sweetbriar_0_416_0_2_2_2_2

New Line.l(r:p1udm3160-p1ulv22348) Units=km Length=0.014698800000000001 bus1=p1udm3160.1.2 bus2=p1ulv22348.1.2 switch=n enabled=y phases=2 Linecode=1P_UG_AL_1/0_Brenau_0_416_0_2_2_2_2

New Line.l(r:p1udm3162-p1ulv59416) Units=km Length=0.0164295 bus1=p1udm3162.1.2 bus2=p1ulv59416.1.2 switch=n enabled=y phases=2 Linecode=1P_UG_AL_1/0_Brenau_0_416_0_2_2_2_2

New Line.l(r:p1udm3160-p1udm3162) Units=km Length=0.0138829 bus1=p1udm3160.1.2 bus2=p1udm3162.1.2 switch=n enabled=y phases=2 Linecode=1P_UG_AL_1/0_Brenau_0_416_0_2_2_2_2

New Line.l(r:p1udm3160-p1udt866lv) Units=km Length=0.00634039 bus1=p1udt866lv.1.2 bus2=p1udm3160.1.2 switch=n enabled=y phases=2 Linecode=1P_UG_AL_4/0_Sweetbriar_0_416_0_2_2_2_2

New Line.l(r:p1udt867lv-p1ulv881) Units=km Length=0.0158728 bus1=p1udt867lv.1.2 bus2=p1ulv881.1.2 switch=n enabled=y phases=2 Linecode=1P_UG_AL_4/0_Sweetbriar_0_416_0_2_2_2_2

New Line.l(r:p1udm3164-p1ulv7873) Units=km Length=0.0215061 bus1=p1udm3164.1.2 bus2=p1ulv7873.1.2 switch=n enabled=y phases=2 Linecode=1P_UG_AL_1/0_Brenau_0_416_0_2_2_2_2

New Line.l(r:p1udm3165-p1ulv9726) Units=km Length=0.0149749 bus1=p1udm3165.1.2 bus2=p1ulv9726.1.2 switch=n enabled=y phases=2 Linecode=1P_UG_AL_1/0_Brenau_0_416_0_2_2_2_2

New Line.l(r:p1udm3164-p1udm3165) Units=km Length=0.00940541 bus1=p1udm3164.1.2 bus2=p1udm3165.1.2 switch=n enabled=y phases=2 Linecode=1P_UG_AL_1/0_Brenau_0_416_0_2_2_2_2

New Line.l(r:p1udm3164-p1udt867lv) Units=km Length=0.00941074 bus1=p1udt867lv.1.2 bus2=p1udm3164.1.2 switch=n enabled=y phases=2 Linecode=1P_UG_AL_4/0_Sweetbriar_0_416_0_2_2_2_2

New Line.l(r:p1udm3166-p1ulv38878) Units=km Length=0.0259156 bus1=p1udm3166.1.2 bus2=p1ulv38878.1.2 switch=n enabled=y phases=2 Linecode=1P_UG_AL_1/0_Brenau_0_416_0_2_2_2_2

New Line.l(r:p1udm3166-p1udt867lv) Units=km Length=0.0548631 bus1=p1udt867lv.1.2 bus2=p1udm3166.1.2 switch=n enabled=y phases=2 Linecode=1P_UG_AL_1/0_Brenau_0_416_0_2_2_2_2

New Line.l(r:p1udm3184-p1ulv25579) Units=km Length=0.015131200000000001 bus1=p1udm3184.1.2 bus2=p1ulv25579.1.2 switch=n enabled=y phases=2 Linecode=1P_UG_AL_1/0_Brenau_0_416_0_2_2_2_2

New Line.l(r:p1udm3183-p1ulv886) Units=km Length=0.0123016 bus1=p1udm3183.1.2 bus2=p1ulv886.1.2 switch=n enabled=y phases=2 Linecode=1P_UG_AL_1/0_Brenau_0_416_0_2_2_2_2

New Line.l(r:p1udm3183-p1udm3184) Units=km Length=0.013725100000000002 bus1=p1udm3184.1.2 bus2=p1udm3183.1.2 switch=n enabled=y phases=2 Linecode=1P_UG_AL_1/0_Brenau_0_416_0_2_2_2_2

New Line.l(r:p1udm3184-p1udt872lv) Units=km Length=0.00685773 bus1=p1udt872lv.1.2 bus2=p1udm3184.1.2 switch=n enabled=y phases=2 Linecode=1P_UG_AL_4/0_Sweetbriar_0_416_0_2_2_2_2

New Line.l(r:p1udm3185-p1ulv58207) Units=km Length=0.0111501 bus1=p1udm3185.1.2 bus2=p1ulv58207.1.2 switch=n enabled=y phases=2 Linecode=1P_UG_AL_1/0_Brenau_0_416_0_2_2_2_2

New Line.l(r:p1udm3185-p1udt872lv) Units=km Length=0.0310622 bus1=p1udt872lv.1.2 bus2=p1udm3185.1.2 switch=n enabled=y phases=2 Linecode=1P_UG_AL_1/0_Brenau_0_416_0_2_2_2_2

New Line.l(r:p1udt873lv-p1ulv10332) Units=km Length=0.0175441 bus1=p1udt873lv.1.2 bus2=p1ulv10332.1.2 switch=n enabled=y phases=2 Linecode=1P_UG_AL_1/0_Brenau_0_416_0_2_2_2_2

New Line.l(r:p1udt873lv-p1ulv49531) Units=km Length=0.0155785 bus1=p1udt873lv.1.2 bus2=p1ulv49531.1.2 switch=n enabled=y phases=2 Linecode=1P_UG_AL_1/0_Brenau_0_416_0_2_2_2_2

New Line.l(r:p1udm3186-p1ulv887) Units=km Length=0.014011200000000001 bus1=p1udm3186.1.2 bus2=p1ulv887.1.2 switch=n enabled=y phases=2 Linecode=1P_UG_AL_1/0_Brenau_0_416_0_2_2_2_2

New Line.l(r:p1udm3186-p1ulv37614) Units=km Length=0.0179411 bus1=p1udm3186.1.2 bus2=p1ulv37614.1.2 switch=n enabled=y phases=2 Linecode=1P_UG_AL_1/0_Brenau_0_416_0_2_2_2_2

New Line.l(r:p1udm3186-p1udt873lv) Units=km Length=0.0163063 bus1=p1udt873lv.1.2 bus2=p1udm3186.1.2 switch=n enabled=y phases=2 Linecode=1P_UG_AL_4/0_Sweetbriar_0_416_0_2_2_2_2

New Line.l(r:p1udm3189-p1ulv42619) Units=km Length=0.0141743 bus1=p1udm3189.1.2 bus2=p1ulv42619.1.2 switch=n enabled=y phases=2 Linecode=1P_UG_AL_1/0_Brenau_0_416_0_2_2_2_2

New Line.l(r:p1udm3189-p1udt873lv) Units=km Length=0.0728846 bus1=p1udt873lv.1.2 bus2=p1udm3189.1.2 switch=n enabled=y phases=2 Linecode=1P_UG_AL_1/0_Brenau_0_416_0_2_2_2_2

New Line.l(r:p1udt874lv-p1ulv888) Units=km Length=0.0177471 bus1=p1udt874lv.1.2 bus2=p1ulv888.1.2 switch=n enabled=y phases=2 Linecode=1P_OH_AL_2/0_Rucina_0_416_0_2_2_2_2

New Line.l(r:p1udt1386lv-p1ulv55119) Units=km Length=0.0174093 bus1=p1udt1386lv.1.2 bus2=p1ulv55119.1.2 switch=n enabled=y phases=2 Linecode=1P_UG_AL_1/0_Brenau_0_416_0_2_2_2_2

New Line.l(r:p1udm5061-p1ulv1432) Units=km Length=0.0166908 bus1=p1udm5061.1.2 bus2=p1ulv1432.1.2 switch=n enabled=y phases=2 Linecode=1P_UG_AL_1/0_Brenau_0_416_0_2_2_2_2

New Line.l(r:p1udm5062-p1ulv9009) Units=km Length=0.0196701 bus1=p1udm5062.1.2 bus2=p1ulv9009.1.2 switch=n enabled=y phases=2 Linecode=1P_UG_AL_1/0_Brenau_0_416_0_2_2_2_2

New Line.l(r:p1udm5061-p1udm5062) Units=km Length=0.0166666 bus1=p1udm5061.1.2 bus2=p1udm5062.1.2 switch=n enabled=y phases=2 Linecode=1P_UG_AL_1/0_Brenau_0_416_0_2_2_2_2

New Line.l(r:p1udm5061-p1udt1386lv) Units=km Length=0.008337060000000002 bus1=p1udt1386lv.1.2 bus2=p1udm5061.1.2 switch=n enabled=y phases=2 Linecode=1P_UG_AL_4/0_Sweetbriar_0_416_0_2_2_2_2

New Line.l(r:p1udm5063-p1ulv22258) Units=km Length=0.0178581 bus1=p1udm5063.1.2 bus2=p1ulv22258.1.2 switch=n enabled=y phases=2 Linecode=1P_UG_AL_1/0_Brenau_0_416_0_2_2_2_2

New Line.l(r:p1udm5063-p1ulv56325) Units=km Length=0.0167483 bus1=p1udm5063.1.2 bus2=p1ulv56325.1.2 switch=n enabled=y phases=2 Linecode=1P_UG_AL_1/0_Brenau_0_416_0_2_2_2_2

New Line.l(r:p1udm5063-p1udt1386lv) Units=km Length=0.00824165 bus1=p1udt1386lv.1.2 bus2=p1udm5063.1.2 switch=n enabled=y phases=2 Linecode=1P_UG_AL_4/0_Sweetbriar_0_416_0_2_2_2_2

New Line.l(r:p1udm5067-p1ulv2097) Units=km Length=0.015452800000000001 bus1=p1udm5067.1.2 bus2=p1ulv2097.1.2 switch=n enabled=y phases=2 Linecode=1P_UG_AL_1/0_Brenau_0_416_0_2_2_2_2

New Line.l(r:p1udm5068-p1ulv10875) Units=km Length=0.0159073 bus1=p1udm5068.1.2 bus2=p1ulv10875.1.2 switch=n enabled=y phases=2 Linecode=1P_UG_AL_1/0_Brenau_0_416_0_2_2_2_2

New Line.l(r:p1udm5069-p1ulv22260) Units=km Length=0.0165652 bus1=p1udm5069.1.2 bus2=p1ulv22260.1.2 switch=n enabled=y phases=2 Linecode=1P_UG_AL_1/0_Brenau_0_416_0_2_2_2_2

New Line.l(r:p1udm5068-p1udm5069) Units=km Length=0.0090683 bus1=p1udm5068.1.2 bus2=p1udm5069.1.2 switch=n enabled=y phases=2 Linecode=1P_UG_AL_1/0_Brenau_0_416_0_2_2_2_2

New Line.l(r:p1udm5067-p1udm5068) Units=km Length=0.009061040000000001 bus1=p1udm5067.1.2 bus2=p1udm5068.1.2 switch=n enabled=y phases=2 Linecode=1P_UG_AL_4/0_Sweetbriar_0_416_0_2_2_2_2

New Line.l(r:p1udm5067-p1udt1387lv) Units=km Length=0.009061040000000001 bus1=p1udt1387lv.1.2 bus2=p1udm5067.1.2 switch=n enabled=y phases=2 Linecode=1P_UG_AL_4/0_Sweetbriar_0_416_0_2_2_2_2

New Line.l(r:p1udm5071-p1ulv46417) Units=km Length=0.0161282 bus1=p1udm5071.1.2 bus2=p1ulv46417.1.2 switch=n enabled=y phases=2 Linecode=1P_UG_AL_1/0_Brenau_0_416_0_2_2_2_2

New Line.l(r:p1udm5066-p1ulv1433) Units=km Length=0.0160457 bus1=p1udm5066.1.2 bus2=p1ulv1433.1.2 switch=n enabled=y phases=2 Linecode=1P_UG_AL_1/0_Brenau_0_416_0_2_2_2_2

New Line.l(r:p1udm5066-p1ulv24825) Units=km Length=0.0160541 bus1=p1udm5066.1.2 bus2=p1ulv24825.1.2 switch=n enabled=y phases=2 Linecode=1P_UG_AL_1/0_Brenau_0_416_0_2_2_2_2

New Line.l(r:p1udm5066-p1udm5071) Units=km Length=0.00886707 bus1=p1udm5071.1.2 bus2=p1udm5066.1.2 switch=n enabled=y phases=2 Linecode=1P_UG_AL_2/0_Converse_0_416_0_2_2_2_2

New Line.l(r:p1udm5071-p1udt1387lv) Units=km Length=0.0090683 bus1=p1udt1387lv.1.2 bus2=p1udm5071.1.2 switch=n enabled=y phases=2 Linecode=1P_UG_AL_4/0_Sweetbriar_0_416_0_2_2_2_2

New Line.l(r:p1udt1391lv-p1ulv1438) Units=km Length=0.0159669 bus1=p1udt1391lv.1.2 bus2=p1ulv1438.1.2 switch=n enabled=y phases=2 Linecode=1P_OH_AL_2/0_Rucina_0_416_0_2_2_2_2

New Line.l(r:p1udt1391lv-p1ulv12144) Units=km Length=0.0637774 bus1=p1udt1391lv.1.2 bus2=p1ulv12144.1.2 switch=n enabled=y phases=2 Linecode=1P_OH_AL_4/0_Zuzara_0_416_0_2_2_2_2

New Line.l(r:p1udt1391lv-p1ulv31788) Units=km Length=0.0177518 bus1=p1udt1391lv.1.2 bus2=p1ulv31788.1.2 switch=n enabled=y phases=2 Linecode=1P_OH_AL_2/0_Rucina_0_416_0_2_2_2_2

New Line.l(r:p1udm5083-p1ulv15846) Units=km Length=0.0160284 bus1=p1udm5083.1.2 bus2=p1ulv15846.1.2 switch=n enabled=y phases=2 Linecode=1P_OH_AL_2/0_Rucina_0_416_0_2_2_2_2

New Line.l(r:p1udm5083-p1udt1391lv) Units=km Length=0.0191032 bus1=p1udt1391lv.1.2 bus2=p1udm5083.1.2 switch=n enabled=y phases=2 Linecode=1P_OH_AL_2/0_Rucina_0_416_0_2_2_2_2

New Line.l(r:p1udt1394lv-p1ulv1441) Units=km Length=0.0177391 bus1=p1udt1394lv.1.2 bus2=p1ulv1441.1.2 switch=n enabled=y phases=2 Linecode=1P_OH_AL_2/0_Rucina_0_416_0_2_2_2_2

New Line.l(r:p1udt1395lv-p1ulv1442) Units=km Length=0.0196372 bus1=p1udt1395lv.1.2 bus2=p1ulv1442.1.2 switch=n enabled=y phases=2 Linecode=1P_OH_AL_2/0_Rucina_0_416_0_2_2_2_2

New Line.l(r:p1udt1405lv-p1ulv1453) Units=km Length=0.0119442 bus1=p1udt1405lv.1.2 bus2=p1ulv1453.1.2 switch=n enabled=y phases=2 Linecode=1P_OH_AL_2/0_Rucina_0_416_0_2_2_2_2

New Line.l(r:p1udt1405lv-p1ulv15225) Units=km Length=0.0183134 bus1=p1udt1405lv.1.2 bus2=p1ulv15225.1.2 switch=n enabled=y phases=2 Linecode=1P_OH_AL_2/0_Rucina_0_416_0_2_2_2_2

New Line.l(r:p1udm5133-p1ulv40694) Units=km Length=0.0214627 bus1=p1udm5133.1.2 bus2=p1ulv40694.1.2 switch=n enabled=y phases=2 Linecode=1P_OH_AL_2/0_Rucina_0_416_0_2_2_2_2

New Line.l(r:p1udm5133-p1udt1405lv) Units=km Length=0.0169959 bus1=p1udt1405lv.1.2 bus2=p1udm5133.1.2 switch=n enabled=y phases=2 Linecode=1P_OH_AL_2/0_Rucina_0_416_0_2_2_2_2

New Line.l(r:p1udt1406lv-p1ulv1454) Units=km Length=0.0499358 bus1=p1udt1406lv.1.2 bus2=p1ulv1454.1.2 switch=n enabled=y phases=2 Linecode=1P_OH_AL_4/0_Zuzara_0_416_0_2_2_2_2

New Line.l(r:p1udt1478lv-p1ulv1532) Units=km Length=0.0223254 bus1=p1udt1478lv.1.2 bus2=p1ulv1532.1.2 switch=n enabled=y phases=2 Linecode=1P_UG_AL_2/0_Converse_0_416_0_2_2_2_2

New Line.l(r:p1udt1478lv-p1ulv45828) Units=km Length=0.0267292 bus1=p1udt1478lv.1.2 bus2=p1ulv45828.1.2 switch=n enabled=y phases=2 Linecode=1P_UG_AL_1/0_Brenau_0_416_0_2_2_2_2

New Line.l(r:p1udm5403-p1ulv53301) Units=km Length=0.0262688 bus1=p1udm5403.1.2 bus2=p1ulv53301.1.2 switch=n enabled=y phases=2 Linecode=1P_UG_AL_1/0_Brenau_0_416_0_2_2_2_2

New Line.l(r:p1udm5403-p1udt1478lv) Units=km Length=0.00986471 bus1=p1udt1478lv.1.2 bus2=p1udm5403.1.2 switch=n enabled=y phases=2 Linecode=1P_UG_AL_1/0_Brenau_0_416_0_2_2_2_2

New Line.l(r:p1udt1486lv-p1ulv7865) Units=km Length=0.0198505 bus1=p1udt1486lv.1.2 bus2=p1ulv7865.1.2 switch=n enabled=y phases=2 Linecode=1P_OH_AL_2/0_Rucina_0_416_0_2_2_2_2

New Line.l(r:p1udt1486lv-p1ulv41998) Units=km Length=0.04510080000000001 bus1=p1udt1486lv.1.2 bus2=p1ulv41998.1.2 switch=n enabled=y phases=2 Linecode=1P_OH_AL_4/0_Zuzara_0_416_0_2_2_2_2

New Line.l(r:p1udt1486lv-p1ulv58797) Units=km Length=0.015767 bus1=p1udt1486lv.1.2 bus2=p1ulv58797.1.2 switch=n enabled=y phases=2 Linecode=1P_OH_AL_2/0_Rucina_0_416_0_2_2_2_2

New Line.l(r:p1udm5433-p1ulv1541) Units=km Length=0.0195064 bus1=p1udm5433.1.2 bus2=p1ulv1541.1.2 switch=n enabled=y phases=2 Linecode=1P_OH_AL_2/0_Rucina_0_416_0_2_2_2_2

New Line.l(r:p1udm5433-p1udt1486lv) Units=km Length=0.0354714 bus1=p1udt1486lv.1.2 bus2=p1udm5433.1.2 switch=n enabled=y phases=2 Linecode=1P_OH_AL_4/0_Zuzara_0_416_0_2_2_2_2

New Line.l(r:p1udt1488lv-p1ulv1543) Units=km Length=0.0129416 bus1=p1udt1488lv.1.2 bus2=p1ulv1543.1.2 switch=n enabled=y phases=2 Linecode=1P_UG_AL_1/0_Brenau_0_416_0_2_2_2_2

New Line.l(r:p1udm5444-p1ulv17238) Units=km Length=0.0165103 bus1=p1udm5444.1.2 bus2=p1ulv17238.1.2 switch=n enabled=y phases=2 Linecode=1P_UG_AL_1/0_Brenau_0_416_0_2_2_2_2

New Line.l(r:p1udm5443-p1ulv12218) Units=km Length=0.0119091 bus1=p1udm5443.1.2 bus2=p1ulv12218.1.2 switch=n enabled=y phases=2 Linecode=1P_UG_AL_1/0_Brenau_0_416_0_2_2_2_2

New Line.l(r:p1udm5443-p1udm5444) Units=km Length=0.00815981 bus1=p1udm5444.1.2 bus2=p1udm5443.1.2 switch=n enabled=y phases=2 Linecode=1P_UG_AL_1/0_Brenau_0_416_0_2_2_2_2

New Line.l(r:p1udm5444-p1udt1488lv) Units=km Length=0.0310437 bus1=p1udt1488lv.1.2 bus2=p1udm5444.1.2 switch=n enabled=y phases=2 Linecode=1P_UG_AL_4/0_Sweetbriar_0_416_0_2_2_2_2

New Line.l(r:p1udm5447-p1ulv54563) Units=km Length=0.0150287 bus1=p1udm5447.1.2 bus2=p1ulv54563.1.2 switch=n enabled=y phases=2 Linecode=1P_UG_AL_1/0_Brenau_0_416_0_2_2_2_2

New Line.l(r:p1udm5445-p1ulv24313) Units=km Length=0.0146637 bus1=p1udm5445.1.2 bus2=p1ulv24313.1.2 switch=n enabled=y phases=2 Linecode=1P_UG_AL_1/0_Brenau_0_416_0_2_2_2_2

New Line.l(r:p1udm5445-p1ulv47076) Units=km Length=0.015403 bus1=p1udm5445.1.2 bus2=p1ulv47076.1.2 switch=n enabled=y phases=2 Linecode=1P_UG_AL_1/0_Brenau_0_416_0_2_2_2_2

New Line.l(r:p1udm5445-p1udm5447) Units=km Length=0.0151536 bus1=p1udm5447.1.2 bus2=p1udm5445.1.2 switch=n enabled=y phases=2 Linecode=1P_UG_AL_4/0_Sweetbriar_0_416_0_2_2_2_2
