New Line.l(r:p1udt480lv-p1ulv486) Units=km Length=0.0222087 bus1=p1udt480lv.1.2 bus2=p1ulv486.1.2 switch=n enabled=y phases=2 Linecode=1P_UG_AL_1/0_Brenau_0_416_0_2_2_2_2

New Line.l(r:p1udt481lv-p1ulv14296) Units=km Length=0.0114559 bus1=p1udt481lv.1.2 bus2=p1ulv14296.1.2 switch=n enabled=y phases=2 Linecode=1P_UG_AL_1/0_Brenau_0_416_0_2_2_2_2

New Line.l(r:p1udm1739-p1ulv7466) Units=km Length=0.0105685 bus1=p1udm1739.1.2 bus2=p1ulv7466.1.2 switch=n enabled=y phases=2 Linecode=1P_UG_AL_1/0_Brenau_0_416_0_2_2_2_2

New Line.l(r:p1udm1738-p1ulv487) Units=km Length=0.013162000000000002 bus1=p1udm1738.1.2 bus2=p1ulv487.1.2 switch=n enabled=y phases=2 Linecode=1P_UG_AL_1/0_Brenau_0_416_0_2_2_2_2

New Line.l(r:p1udm1738-p1udm1739) Units=km Length=0.0465889 bus1=p1udm1739.1.2 bus2=p1udm1738.1.2 switch=n enabled=y phases=2 Linecode=1P_UG_AL_1/0_Brenau_0_416_0_2_2_2_2

New Line.l(r:p1udm1739-p1udt481lv) Units=km Length=0.00991367 bus1=p1udt481lv.1.2 bus2=p1udm1739.1.2 switch=n enabled=y phases=2 Linecode=1P_UG_AL_4/0_Sweetbriar_0_416_0_2_2_2_2

New Line.l(r:p1udt482lv-p1ulv7467) Units=km Length=0.0237507 bus1=p1udt482lv.1.2 bus2=p1ulv7467.1.2 switch=n enabled=y phases=2 Linecode=1P_UG_AL_1/0_Brenau_0_416_0_2_2_2_2

New Line.l(r:p1udm1741-p1ulv488) Units=km Length=0.0253701 bus1=p1udm1741.1.2 bus2=p1ulv488.1.2 switch=n enabled=y phases=2 Linecode=1P_UG_AL_1/0_Brenau_0_416_0_2_2_2_2

New Line.l(r:p1udm1741-p1udt482lv) Units=km Length=0.00942739 bus1=p1udt482lv.1.2 bus2=p1udm1741.1.2 switch=n enabled=y phases=2 Linecode=1P_UG_AL_1/0_Brenau_0_416_0_2_2_2_2

New Line.l(r:p1udm1743-p1ulv18778) Units=km Length=0.0155301 bus1=p1udm1743.1.2 bus2=p1ulv18778.1.2 switch=n enabled=y phases=2 Linecode=1P_UG_AL_1/0_Brenau_0_416_0_2_2_2_2

New Line.l(r:p1udm1743-p1udt482lv) Units=km Length=0.00942985 bus1=p1udt482lv.1.2 bus2=p1udm1743.1.2 switch=n enabled=y phases=2 Linecode=1P_UG_AL_1/0_Brenau_0_416_0_2_2_2_2

New Line.l(r:p1udm1744-p1ulv489) Units=km Length=0.0195105 bus1=p1udm1744.1.2 bus2=p1ulv489.1.2 switch=n enabled=y phases=2 Linecode=1P_UG_AL_1/0_Brenau_0_416_0_2_2_2_2

New Line.l(r:p1udm1744-p1ulv65298) Units=km Length=0.013278500000000002 bus1=p1udm1744.1.2 bus2=p1ulv65298.1.2 switch=n enabled=y phases=2 Linecode=1P_UG_AL_1/0_Brenau_0_416_0_2_2_2_2

New Line.l(r:p1udm1744-p1udt483lv) Units=km Length=0.00966189 bus1=p1udt483lv.1.2 bus2=p1udm1744.1.2 switch=n enabled=y phases=2 Linecode=1P_UG_AL_4/0_Sweetbriar_0_416_0_2_2_2_2

New Line.l(r:p1udm1745-p1ulv16172) Units=km Length=0.0180833 bus1=p1udm1745.1.2 bus2=p1ulv16172.1.2 switch=n enabled=y phases=2 Linecode=1P_UG_AL_1/0_Brenau_0_416_0_2_2_2_2

New Line.l(r:p1udm1745-p1udt483lv) Units=km Length=0.0193238 bus1=p1udt483lv.1.2 bus2=p1udm1745.1.2 switch=n enabled=y phases=2 Linecode=1P_UG_AL_1/0_Brenau_0_416_0_2_2_2_2

New Line.l(r:p1udt491lv-p1ulv63407) Units=km Length=0.0165218 bus1=p1udt491lv.1.2 bus2=p1ulv63407.1.2 switch=n enabled=y phases=2 Linecode=1P_UG_AL_1/0_Brenau_0_416_0_2_2_2_2

New Line.l(r:p1udm1771-p1ulv497) Units=km Length=0.0178114 bus1=p1udm1771.1.2 bus2=p1ulv497.1.2 switch=n enabled=y phases=2 Linecode=1P_UG_AL_1/0_Brenau_0_416_0_2_2_2_2

New Line.l(r:p1udm1771-p1ulv15524) Units=km Length=0.0181423 bus1=p1udm1771.1.2 bus2=p1ulv15524.1.2 switch=n enabled=y phases=2 Linecode=1P_UG_AL_1/0_Brenau_0_416_0_2_2_2_2

New Line.l(r:p1udm1771-p1udt491lv) Units=km Length=0.0196127 bus1=p1udt491lv.1.2 bus2=p1udm1771.1.2 switch=n enabled=y phases=2 Linecode=1P_UG_AL_4/0_Sweetbriar_0_416_0_2_2_2_2

New Line.l(r:p1udm1773-p1ulv16178) Units=km Length=0.016153000000000004 bus1=p1udm1773.1.2 bus2=p1ulv16178.1.2 switch=n enabled=y phases=2 Linecode=1P_UG_AL_1/0_Brenau_0_416_0_2_2_2_2

New Line.l(r:p1udm1773-p1ulv55406) Units=km Length=0.0189901 bus1=p1udm1773.1.2 bus2=p1ulv55406.1.2 switch=n enabled=y phases=2 Linecode=1P_UG_AL_1/0_Brenau_0_416_0_2_2_2_2

New Line.l(r:p1udm1775-p1ulv62766) Units=km Length=0.0207846 bus1=p1udm1775.1.2 bus2=p1ulv62766.1.2 switch=n enabled=y phases=2 Linecode=1P_UG_AL_1/0_Brenau_0_416_0_2_2_2_2

New Line.l(r:p1udm1773-p1udm1775) Units=km Length=0.0294127 bus1=p1udm1773.1.2 bus2=p1udm1775.1.2 switch=n enabled=y phases=2 Linecode=1P_UG_AL_1/0_Brenau_0_416_0_2_2_2_2

New Line.l(r:p1udm1773-p1udt491lv) Units=km Length=0.00980637 bus1=p1udt491lv.1.2 bus2=p1udm1773.1.2 switch=n enabled=y phases=2 Linecode=1P_UG_AL_4/0_Sweetbriar_0_416_0_2_2_2_2

New Line.l(r:p1udt495lv-p1ulv501) Units=km Length=0.0059496 bus1=p1udt495lv.1.2 bus2=p1ulv501.1.2 switch=n enabled=y phases=2 Linecode=1P_UG_AL_1/0_Brenau_0_416_0_2_2_2_2

New Line.l(r:p1udm1793-p1ulv7465) Units=km Length=0.00853633 bus1=p1udm1793.1.2 bus2=p1ulv7465.1.2 switch=n enabled=y phases=2 Linecode=1P_UG_AL_1/0_Brenau_0_416_0_2_2_2_2

New Line.l(r:p1udm1794-p1ulv25775) Units=km Length=0.0106949 bus1=p1udm1794.1.2 bus2=p1ulv25775.1.2 switch=n enabled=y phases=2 Linecode=1P_UG_AL_1/0_Brenau_0_416_0_2_2_2_2

New Line.l(r:p1udm1793-p1udm1794) Units=km Length=0.0198415 bus1=p1udm1793.1.2 bus2=p1udm1794.1.2 switch=n enabled=y phases=2 Linecode=1P_UG_AL_1/0_Brenau_0_416_0_2_2_2_2

New Line.l(r:p1udm1793-p1udt495lv) Units=km Length=0.00991978 bus1=p1udt495lv.1.2 bus2=p1udm1793.1.2 switch=n enabled=y phases=2 Linecode=1P_UG_AL_4/0_Sweetbriar_0_416_0_2_2_2_2

New Line.l(r:p1udm1795-p1ulv25790) Units=km Length=0.012192 bus1=p1udm1795.1.2 bus2=p1ulv25790.1.2 switch=n enabled=y phases=2 Linecode=1P_UG_AL_1/0_Brenau_0_416_0_2_2_2_2

New Line.l(r:p1udm1796-p1ulv36599) Units=km Length=0.0093534 bus1=p1udm1796.1.2 bus2=p1ulv36599.1.2 switch=n enabled=y phases=2 Linecode=1P_UG_AL_1/0_Brenau_0_416_0_2_2_2_2

New Line.l(r:p1udm1795-p1udm1796) Units=km Length=0.030877 bus1=p1udm1795.1.2 bus2=p1udm1796.1.2 switch=n enabled=y phases=2 Linecode=1P_UG_AL_1/0_Brenau_0_416_0_2_2_2_2

New Line.l(r:p1udm1795-p1udt495lv) Units=km Length=0.0198396 bus1=p1udt495lv.1.2 bus2=p1udm1795.1.2 switch=n enabled=y phases=2 Linecode=1P_UG_AL_4/0_Sweetbriar_0_416_0_2_2_2_2

New Line.l(r:p1udt1069lv-p1ulv60248) Units=km Length=0.0103344 bus1=p1udt1069lv.1.2 bus2=p1ulv60248.1.2 switch=n enabled=y phases=2 Linecode=1P_UG_AL_1/0_Brenau_0_416_0_2_2_2_2

New Line.l(r:p1udm3902-p1ulv1092) Units=km Length=0.0105709 bus1=p1udm3902.1.2 bus2=p1ulv1092.1.2 switch=n enabled=y phases=2 Linecode=1P_UG_AL_1/0_Brenau_0_416_0_2_2_2_2

New Line.l(r:p1udm3902-p1udt1069lv) Units=km Length=0.00987249 bus1=p1udt1069lv.1.2 bus2=p1udm3902.1.2 switch=n enabled=y phases=2 Linecode=1P_UG_AL_1/0_Brenau_0_416_0_2_2_2_2

New Line.l(r:p1udm3925-p1ulv1098) Units=km Length=0.0147478 bus1=p1udm3925.1.2 bus2=p1ulv1098.1.2 switch=n enabled=y phases=2 Linecode=1P_UG_AL_1/0_Brenau_0_416_0_2_2_2_2

New Line.l(r:p1udm3925-p1ulv42836) Units=km Length=0.0224906 bus1=p1udm3925.1.2 bus2=p1ulv42836.1.2 switch=n enabled=y phases=2 Linecode=1P_UG_AL_1/0_Brenau_0_416_0_2_2_2_2

New Line.l(r:p1udm3927-p1ulv35333) Units=km Length=0.00920783 bus1=p1udm3927.1.2 bus2=p1ulv35333.1.2 switch=n enabled=y phases=2 Linecode=1P_UG_AL_1/0_Brenau_0_416_0_2_2_2_2

New Line.l(r:p1udm3927-p1ulv57241) Units=km Length=0.0257238 bus1=p1udm3927.1.2 bus2=p1ulv57241.1.2 switch=n enabled=y phases=2 Linecode=1P_UG_AL_4/0_Sweetbriar_0_416_0_2_2_2_2

New Line.l(r:p1udm3925-p1udm3927) Units=km Length=0.029783 bus1=p1udm3925.1.2 bus2=p1udm3927.1.2 switch=n enabled=y phases=2 Linecode=1P_UG_AL_4/0_Sweetbriar_0_416_0_2_2_2_2

New Line.l(r:p1udm3925-p1udt1075lv) Units=km Length=0.009930990000000002 bus1=p1udt1075lv.1.2 bus2=p1udm3925.1.2 switch=n enabled=y phases=2 Linecode=1P_UG_AL_4/0_Sweetbriar_0_416_0_2_2_2_2

New Line.l(r:p1udm3929-p1ulv54822) Units=km Length=0.0205867 bus1=p1udm3929.1.2 bus2=p1ulv54822.1.2 switch=n enabled=y phases=2 Linecode=1P_UG_AL_1/0_Brenau_0_416_0_2_2_2_2

New Line.l(r:p1udm3926-p1ulv32748) Units=km Length=0.0153805 bus1=p1udm3926.1.2 bus2=p1ulv32748.1.2 switch=n enabled=y phases=2 Linecode=1P_UG_AL_1/0_Brenau_0_416_0_2_2_2_2

New Line.l(r:p1udm3926-p1ulv61490) Units=km Length=0.0198233 bus1=p1udm3926.1.2 bus2=p1ulv61490.1.2 switch=n enabled=y phases=2 Linecode=1P_UG_AL_1/0_Brenau_0_416_0_2_2_2_2

New Line.l(r:p1udm3926-p1udm3929) Units=km Length=0.0689802 bus1=p1udm3929.1.2 bus2=p1udm3926.1.2 switch=n enabled=y phases=2 Linecode=1P_UG_AL_2/0_Converse_0_416_0_2_2_2_2

New Line.l(r:p1udm3929-p1udt1075lv) Units=km Length=0.00992099 bus1=p1udt1075lv.1.2 bus2=p1udm3929.1.2 switch=n enabled=y phases=2 Linecode=1P_UG_AL_4/0_Sweetbriar_0_416_0_2_2_2_2

New Line.l(r:p1udt1699lv-p1ulv16838) Units=km Length=0.0188202 bus1=p1udt1699lv.1.2 bus2=p1ulv16838.1.2 switch=n enabled=y phases=2 Linecode=1P_UG_AL_1/0_Brenau_0_416_0_2_2_2_2

New Line.l(r:p1udm6192-p1ulv1778) Units=km Length=0.0198833 bus1=p1udm6192.1.2 bus2=p1ulv1778.1.2 switch=n enabled=y phases=2 Linecode=1P_UG_AL_1/0_Brenau_0_416_0_2_2_2_2

New Line.l(r:p1udm6192-p1udt1699lv) Units=km Length=0.0292374 bus1=p1udt1699lv.1.2 bus2=p1udm6192.1.2 switch=n enabled=y phases=2 Linecode=1P_UG_AL_1/0_Brenau_0_416_0_2_2_2_2

New Line.l(r:p1udm6194-p1ulv60246) Units=km Length=0.0217242 bus1=p1udm6194.1.2 bus2=p1ulv60246.1.2 switch=n enabled=y phases=2 Linecode=1P_UG_AL_1/0_Brenau_0_416_0_2_2_2_2

New Line.l(r:p1udm6194-p1udt1699lv) Units=km Length=0.0194836 bus1=p1udt1699lv.1.2 bus2=p1udm6194.1.2 switch=n enabled=y phases=2 Linecode=1P_UG_AL_1/0_Brenau_0_416_0_2_2_2_2

New Line.l(r:p1udt1700lv-p1ulv1779) Units=km Length=0.0099665 bus1=p1udt1700lv.1.2 bus2=p1ulv1779.1.2 switch=n enabled=y phases=2 Linecode=1P_UG_AL_1/0_Brenau_0_416_0_2_2_2_2

New Line.l(r:p1udt1700lv-p1ulv54813) Units=km Length=0.010137 bus1=p1udt1700lv.1.2 bus2=p1ulv54813.1.2 switch=n enabled=y phases=2 Linecode=1P_UG_AL_1/0_Brenau_0_416_0_2_2_2_2

New Line.l(r:p1udm6197-p1ulv55397) Units=km Length=0.0181452 bus1=p1udm6197.1.2 bus2=p1ulv55397.1.2 switch=n enabled=y phases=2 Linecode=1P_UG_AL_1/0_Brenau_0_416_0_2_2_2_2

New Line.l(r:p1udm6197-p1udt1700lv) Units=km Length=0.0883227 bus1=p1udt1700lv.1.2 bus2=p1udm6197.1.2 switch=n enabled=y phases=2 Linecode=1P_UG_AL_1/0_Brenau_0_416_0_2_2_2_2

New Line.l(r:p1udt1705lv-p1ulv1784) Units=km Length=0.0198112 bus1=p1udt1705lv.1.2 bus2=p1ulv1784.1.2 switch=n enabled=y phases=2 Linecode=1P_UG_AL_1/0_Brenau_0_416_0_2_2_2_2

New Line.l(r:p1udt1706lv-p1ulv35334) Units=km Length=0.0163405 bus1=p1udt1706lv.1.2 bus2=p1ulv35334.1.2 switch=n enabled=y phases=2 Linecode=1P_UG_AL_1/0_Brenau_0_416_0_2_2_2_2

New Line.l(r:p1udm6212-p1ulv1785) Units=km Length=0.0141879 bus1=p1udm6212.1.2 bus2=p1ulv1785.1.2 switch=n enabled=y phases=2 Linecode=1P_UG_AL_1/0_Brenau_0_416_0_2_2_2_2

New Line.l(r:p1udm6213-p1ulv4899) Units=km Length=0.0166102 bus1=p1udm6213.1.2 bus2=p1ulv4899.1.2 switch=n enabled=y phases=2 Linecode=1P_UG_AL_1/0_Brenau_0_416_0_2_2_2_2

New Line.l(r:p1udm6212-p1udm6213) Units=km Length=0.00994735 bus1=p1udm6212.1.2 bus2=p1udm6213.1.2 switch=n enabled=y phases=2 Linecode=1P_UG_AL_1/0_Brenau_0_416_0_2_2_2_2

New Line.l(r:p1udm6212-p1udt1706lv) Units=km Length=0.0199027 bus1=p1udt1706lv.1.2 bus2=p1udm6212.1.2 switch=n enabled=y phases=2 Linecode=1P_UG_AL_4/0_Sweetbriar_0_416_0_2_2_2_2

New Line.l(r:p1udm6216-p1ulv52927) Units=km Length=0.0147086 bus1=p1udm6216.1.2 bus2=p1ulv52927.1.2 switch=n enabled=y phases=2 Linecode=1P_UG_AL_1/0_Brenau_0_416_0_2_2_2_2

New Line.l(r:p1udm6214-p1ulv8709) Units=km Length=0.015184 bus1=p1udm6214.1.2 bus2=p1ulv8709.1.2 switch=n enabled=y phases=2 Linecode=1P_UG_AL_1/0_Brenau_0_416_0_2_2_2_2

New Line.l(r:p1udm6214-p1udm6216) Units=km Length=0.00994548 bus1=p1udm6216.1.2 bus2=p1udm6214.1.2 switch=n enabled=y phases=2 Linecode=1P_UG_AL_1/0_Brenau_0_416_0_2_2_2_2

New Line.l(r:p1udm6216-p1udt1706lv) Units=km Length=0.00994735 bus1=p1udt1706lv.1.2 bus2=p1udm6216.1.2 switch=n enabled=y phases=2 Linecode=1P_UG_AL_4/0_Sweetbriar_0_416_0_2_2_2_2

New Line.l(r:p1udm6217-p1ulv1787) Units=km Length=0.012986 bus1=p1udm6217.1.2 bus2=p1ulv1787.1.2 switch=n enabled=y phases=2 Linecode=1P_UG_AL_1/0_Brenau_0_416_0_2_2_2_2

New Line.l(r:p1udm6217-p1udt1707lv) Units=km Length=0.0278911 bus1=p1udt1707lv.1.2 bus2=p1udm6217.1.2 switch=n enabled=y phases=2 Linecode=1P_UG_AL_1/0_Brenau_0_416_0_2_2_2_2

New Line.l(r:p1udm6218-p1ulv5533) Units=km Length=0.010835700000000002 bus1=p1udm6218.1.2 bus2=p1ulv5533.1.2 switch=n enabled=y phases=2 Linecode=1P_UG_AL_1/0_Brenau_0_416_0_2_2_2_2

New Line.l(r:p1udm6218-p1ulv60840) Units=km Length=0.0165429 bus1=p1udm6218.1.2 bus2=p1ulv60840.1.2 switch=n enabled=y phases=2 Linecode=1P_UG_AL_1/0_Brenau_0_416_0_2_2_2_2

New Line.l(r:p1udm6218-p1udt1707lv) Units=km Length=0.009158030000000001 bus1=p1udt1707lv.1.2 bus2=p1udm6218.1.2 switch=n enabled=y phases=2 Linecode=1P_UG_AL_4/0_Sweetbriar_0_416_0_2_2_2_2

New Line.l(r:p1udm6222-p1ulv11804) Units=km Length=0.0163609 bus1=p1udm6222.1.2 bus2=p1ulv11804.1.2 switch=n enabled=y phases=2 Linecode=1P_UG_AL_1/0_Brenau_0_416_0_2_2_2_2

New Line.l(r:p1udm6222-p1udt1708lv) Units=km Length=0.0461191 bus1=p1udt1708lv.1.2 bus2=p1udm6222.1.2 switch=n enabled=y phases=2 Linecode=1P_UG_AL_1/0_Brenau_0_416_0_2_2_2_2

New Line.l(r:p1udm6223-p1ulv37849) Units=km Length=0.0100199 bus1=p1udm6223.1.2 bus2=p1ulv37849.1.2 switch=n enabled=y phases=2 Linecode=1P_UG_AL_1/0_Brenau_0_416_0_2_2_2_2

New Line.l(r:p1udm6220-p1ulv1788) Units=km Length=0.019083700000000002 bus1=p1udm6220.1.2 bus2=p1ulv1788.1.2 switch=n enabled=y phases=2 Linecode=1P_UG_AL_1/0_Brenau_0_416_0_2_2_2_2

New Line.l(r:p1udm6220-p1ulv3687) Units=km Length=0.00895732 bus1=p1udm6220.1.2 bus2=p1ulv3687.1.2 switch=n enabled=y phases=2 Linecode=1P_UG_AL_1/0_Brenau_0_416_0_2_2_2_2

New Line.l(r:p1udm6220-p1udm6223) Units=km Length=0.009215670000000002 bus1=p1udm6223.1.2 bus2=p1udm6220.1.2 switch=n enabled=y phases=2 Linecode=1P_UG_AL_4/0_Sweetbriar_0_416_0_2_2_2_2

New Line.l(r:p1udm6223-p1udt1708lv) Units=km Length=0.00922563 bus1=p1udt1708lv.1.2 bus2=p1udm6223.1.2 switch=n enabled=y phases=2 Linecode=1P_UG_AL_4/0_Sweetbriar_0_416_0_2_2_2_2

New Line.l(r:p1udt1709lv-p1ulv1789) Units=km Length=0.019503300000000005 bus1=p1udt1709lv.1.2 bus2=p1ulv1789.1.2 switch=n enabled=y phases=2 Linecode=1P_UG_AL_1/0_Brenau_0_416_0_2_2_2_2

New Line.l(r:p1udm6226-p1ulv35980) Units=km Length=0.0215081 bus1=p1udm6226.1.2 bus2=p1ulv35980.1.2 switch=n enabled=y phases=2 Linecode=1P_UG_AL_1/0_Brenau_0_416_0_2_2_2_2

New Line.l(r:p1udm6225-p1ulv7474) Units=km Length=0.0336065 bus1=p1udm6225.1.2 bus2=p1ulv7474.1.2 switch=n enabled=y phases=2 Linecode=1P_UG_AL_1/0_Brenau_0_416_0_2_2_2_2

New Line.l(r:p1udm6225-p1udm6226) Units=km Length=0.00922563 bus1=p1udm6226.1.2 bus2=p1udm6225.1.2 switch=n enabled=y phases=2 Linecode=1P_UG_AL_1/0_Brenau_0_416_0_2_2_2_2

New Line.l(r:p1udm6226-p1udt1709lv) Units=km Length=0.00936122 bus1=p1udt1709lv.1.2 bus2=p1udm6226.1.2 switch=n enabled=y phases=2 Linecode=1P_UG_AL_1/0_Brenau_0_416_0_2_2_2_2

New Line.l(r:p1udm6227-p1ulv36597) Units=km Length=0.0131386 bus1=p1udm6227.1.2 bus2=p1ulv36597.1.2 switch=n enabled=y phases=2 Linecode=1P_UG_AL_1/0_Brenau_0_416_0_2_2_2_2

New Line.l(r:p1udm6227-p1udt1709lv) Units=km Length=0.0280644 bus1=p1udt1709lv.1.2 bus2=p1udm6227.1.2 switch=n enabled=y phases=2 Linecode=1P_UG_AL_1/0_Brenau_0_416_0_2_2_2_2

New Line.l(r:p1udm6232-p1ulv1791) Units=km Length=0.0141354 bus1=p1udm6232.1.2 bus2=p1ulv1791.1.2 switch=n enabled=y phases=2 Linecode=1P_UG_AL_1/0_Brenau_0_416_0_2_2_2_2

New Line.l(r:p1udm6232-p1ulv47309) Units=km Length=0.0112791 bus1=p1udm6232.1.2 bus2=p1ulv47309.1.2 switch=n enabled=y phases=2 Linecode=1P_UG_AL_1/0_Brenau_0_416_0_2_2_2_2

New Line.l(r:p1udm6232-p1udt1711lv) Units=km Length=0.0092148 bus1=p1udt1711lv.1.2 bus2=p1udm6232.1.2 switch=n enabled=y phases=2 Linecode=1P_UG_AL_4/0_Sweetbriar_0_416_0_2_2_2_2

New Line.l(r:p1udm6233-p1ulv32760) Units=km Length=0.0127196 bus1=p1udm6233.1.2 bus2=p1ulv32760.1.2 switch=n enabled=y phases=2 Linecode=1P_UG_AL_1/0_Brenau_0_416_0_2_2_2_2

New Line.l(r:p1udm6233-p1udt1711lv) Units=km Length=0.018438600000000003 bus1=p1udt1711lv.1.2 bus2=p1udm6233.1.2 switch=n enabled=y phases=2 Linecode=1P_UG_AL_1/0_Brenau_0_416_0_2_2_2_2

New Line.l(r:p1udt2261lv-p1ulv2389) Units=km Length=0.0173473 bus1=p1udt2261lv.1.2 bus2=p1ulv2389.1.2 switch=n enabled=y phases=2 Linecode=1P_UG_AL_1/0_Brenau_0_416_0_2_2_2_2

New Line.l(r:p1udt2261lv-p1ulv42232) Units=km Length=0.041641500000000005 bus1=p1udt2261lv.1.2 bus2=p1ulv42232.1.2 switch=n enabled=y phases=2 Linecode=1P_UG_AL_1/0_Brenau_0_416_0_2_2_2_2

New Line.l(r:p1udt2261lv-p1ulv65292) Units=km Length=0.0197111 bus1=p1udt2261lv.1.2 bus2=p1ulv65292.1.2 switch=n enabled=y phases=2 Linecode=1P_UG_AL_1/0_Brenau_0_416_0_2_2_2_2

New Line.l(r:p1udm8188-p1ulv23891) Units=km Length=0.0213179 bus1=p1udm8188.1.2 bus2=p1ulv23891.1.2 switch=n enabled=y phases=2 Linecode=1P_UG_AL_1/0_Brenau_0_416_0_2_2_2_2

New Line.l(r:p1udm8188-p1udt2261lv) Units=km Length=0.00974579 bus1=p1udt2261lv.1.2 bus2=p1udm8188.1.2 switch=n enabled=y phases=2 Linecode=1P_UG_AL_1/0_Brenau_0_416_0_2_2_2_2

New Line.l(r:p1udm8191-p1ulv2390) Units=km Length=0.03889460000000001 bus1=p1udm8191.1.2 bus2=p1ulv2390.1.2 switch=n enabled=y phases=2 Linecode=1P_OH_AL_4/0_Zuzara_0_416_0_2_2_2_2

New Line.l(r:p1udm8191-p1ulv36591) Units=km Length=0.0163507 bus1=p1udm8191.1.2 bus2=p1ulv36591.1.2 switch=n enabled=y phases=2 Linecode=1P_OH_AL_2/0_Rucina_0_416_0_2_2_2_2

New Line.l(r:p1udm8191-p1udt2262lv) Units=km Length=0.0185251 bus1=p1udt2262lv.1.2 bus2=p1udm8191.1.2 switch=n enabled=y phases=2 Linecode=1P_OH_AL_2/0_Rucina_0_416_0_2_2_2_2

New Line.l(r:p1udm8192-p1ulv5526) Units=km Length=0.0403408 bus1=p1udm8192.1.2 bus2=p1ulv5526.1.2 switch=n enabled=y phases=2 Linecode=1P_OH_AL_4/0_Zuzara_0_416_0_2_2_2_2

New Line.l(r:p1udm8192-p1udt2262lv) Units=km Length=0.0185251 bus1=p1udt2262lv.1.2 bus2=p1udm8192.1.2 switch=n enabled=y phases=2 Linecode=1P_OH_AL_2/0_Rucina_0_416_0_2_2_2_2

New Line.l(r:p1udt2842lv-p1ulv3037) Units=km Length=0.014767500000000001 bus1=p1udt2842lv.1.2 bus2=p1ulv3037.1.2 switch=n enabled=y phases=2 Linecode=1P_UG_AL_1/0_Brenau_0_416_0_2_2_2_2

New Line.l(r:p1udm10143-p1ulv41596) Units=km Length=0.0165223 bus1=p1udm10143.1.2 bus2=p1ulv41596.1.2 switch=n enabled=y phases=2 Linecode=1P_UG_AL_1/0_Brenau_0_416_0_2_2_2_2

New Line.l(r:p1udm10143-p1udt2851lv) Units=km Length=0.00902088 bus1=p1udt2851lv.1.2 bus2=p1udm10143.1.2 switch=n enabled=y phases=2 Linecode=1P_UG_AL_1/0_Brenau_0_416_0_2_2_2_2

New Line.l(r:p1udm10144-p1ulv48550) Units=km Length=0.0147366 bus1=p1udm10144.1.2 bus2=p1ulv48550.1.2 switch=n enabled=y phases=2 Linecode=1P_UG_AL_1/0_Brenau_0_416_0_2_2_2_2

New Line.l(r:p1udm10142-p1ulv3046) Units=km Length=0.0107126 bus1=p1udm10142.1.2 bus2=p1ulv3046.1.2 switch=n enabled=y phases=2 Linecode=1P_UG_AL_1/0_Brenau_0_416_0_2_2_2_2

New Line.l(r:p1udm10142-p1udm10144) Units=km Length=0.00902477 bus1=p1udm10144.1.2 bus2=p1udm10142.1.2 switch=n enabled=y phases=2 Linecode=1P_UG_AL_1/0_Brenau_0_416_0_2_2_2_2

New Line.l(r:p1udm10144-p1udt2851lv) Units=km Length=0.00902477 bus1=p1udt2851lv.1.2 bus2=p1udm10144.1.2 switch=n enabled=y phases=2 Linecode=1P_UG_AL_4/0_Sweetbriar_0_416_0_2_2_2_2

New Line.l(r:p1udt3424lv-p1ulv27054) Units=km Length=0.0137908 bus1=p1udt3424lv.1.2 bus2=p1ulv27054.1.2 switch=n enabled=y phases=2 Linecode=1P_UG_AL_1/0_Brenau_0_416_0_2_2_2_2

New Line.l(r:p1udm12099-p1ulv3681) Units=km Length=0.013285600000000002 bus1=p1udm12099.1.2 bus2=p1ulv3681.1.2 switch=n enabled=y phases=2 Linecode=1P_UG_AL_1/0_Brenau_0_416_0_2_2_2_2

New Line.l(r:p1udm12099-p1udt3424lv) Units=km Length=0.00980632 bus1=p1udt3424lv.1.2 bus2=p1udm12099.1.2 switch=n enabled=y phases=2 Linecode=1P_UG_AL_1/0_Brenau_0_416_0_2_2_2_2

New Line.l(r:p1udm12101-p1ulv34690) Units=km Length=0.0168925 bus1=p1udm12101.1.2 bus2=p1ulv34690.1.2 switch=n enabled=y phases=2 Linecode=1P_UG_AL_1/0_Brenau_0_416_0_2_2_2_2

New Line.l(r:p1udm12101-p1udt3424lv) Units=km Length=0.00979762 bus1=p1udt3424lv.1.2 bus2=p1udm12101.1.2 switch=n enabled=y phases=2 Linecode=1P_UG_AL_1/0_Brenau_0_416_0_2_2_2_2

New Line.l(r:p1udm12102-p1ulv3682) Units=km Length=0.014586100000000001 bus1=p1udm12102.1.2 bus2=p1ulv3682.1.2 switch=n enabled=y phases=2 Linecode=1P_UG_AL_1/0_Brenau_0_416_0_2_2_2_2

New Line.l(r:p1udm12104-p1ulv21353) Units=km Length=0.017951 bus1=p1udm12104.1.2 bus2=p1ulv21353.1.2 switch=n enabled=y phases=2 Linecode=1P_UG_AL_1/0_Brenau_0_416_0_2_2_2_2

New Line.l(r:p1udm12105-p1ulv25164) Units=km Length=0.0149059 bus1=p1udm12105.1.2 bus2=p1ulv25164.1.2 switch=n enabled=y phases=2 Linecode=1P_UG_AL_1/0_Brenau_0_416_0_2_2_2_2

New Line.l(r:p1udm12104-p1udm12105) Units=km Length=0.00884699 bus1=p1udm12104.1.2 bus2=p1udm12105.1.2 switch=n enabled=y phases=2 Linecode=1P_UG_AL_1/0_Brenau_0_416_0_2_2_2_2

New Line.l(r:p1udm12102-p1udm12104) Units=km Length=0.00884699 bus1=p1udm12102.1.2 bus2=p1udm12104.1.2 switch=n enabled=y phases=2 Linecode=1P_UG_AL_4/0_Sweetbriar_0_416_0_2_2_2_2

New Line.l(r:p1udm12102-p1udt3425lv) Units=km Length=0.0176906 bus1=p1udt3425lv.1.2 bus2=p1udm12102.1.2 switch=n enabled=y phases=2 Linecode=1P_UG_AL_4/0_Sweetbriar_0_416_0_2_2_2_2

New Line.l(r:p1udm12107-p1ulv37840) Units=km Length=0.0141496 bus1=p1udm12107.1.2 bus2=p1ulv37840.1.2 switch=n enabled=y phases=2 Linecode=1P_UG_AL_1/0_Brenau_0_416_0_2_2_2_2

New Line.l(r:p1udm12103-p1ulv21352) Units=km Length=0.0173347 bus1=p1udm12103.1.2 bus2=p1ulv21352.1.2 switch=n enabled=y phases=2 Linecode=1P_UG_AL_1/0_Brenau_0_416_0_2_2_2_2

New Line.l(r:p1udm12106-p1ulv26414) Units=km Length=0.019434 bus1=p1udm12106.1.2 bus2=p1ulv26414.1.2 switch=n enabled=y phases=2 Linecode=1P_UG_AL_1/0_Brenau_0_416_0_2_2_2_2

New Line.l(r:p1udm12103-p1udm12106) Units=km Length=0.009997060000000002 bus1=p1udm12103.1.2 bus2=p1udm12106.1.2 switch=n enabled=y phases=2 Linecode=1P_UG_AL_1/0_Brenau_0_416_0_2_2_2_2

New Line.l(r:p1udm12103-p1udm12107) Units=km Length=0.009997060000000002 bus1=p1udm12107.1.2 bus2=p1udm12103.1.2 switch=n enabled=y phases=2 Linecode=1P_UG_AL_4/0_Sweetbriar_0_416_0_2_2_2_2

New Line.l(r:p1udm12107-p1udt3425lv) Units=km Length=0.00884699 bus1=p1udt3425lv.1.2 bus2=p1udm12107.1.2 switch=n enabled=y phases=2 Linecode=1P_UG_AL_4/0_Sweetbriar_0_416_0_2_2_2_2

New Line.l(r:p1udt3429lv-p1ulv3686) Units=km Length=0.010351700000000002 bus1=p1udt3429lv.1.2 bus2=p1ulv3686.1.2 switch=n enabled=y phases=2 Linecode=1P_OH_AL_2/0_Rucina_0_416_0_2_2_2_2

New Line.l(r:p1udt3429lv-p1ulv37846) Units=km Length=0.0153229 bus1=p1udt3429lv.1.2 bus2=p1ulv37846.1.2 switch=n enabled=y phases=2 Linecode=1P_OH_AL_2/0_Rucina_0_416_0_2_2_2_2

New Line.l(r:p1udt3931lv-p1ulv12443) Units=km Length=0.0170823 bus1=p1udt3931lv.1.2 bus2=p1ulv12443.1.2 switch=n enabled=y phases=2 Linecode=1P_UG_AL_1/0_Brenau_0_416_0_2_2_2_2

New Line.l(r:p1udm13855-p1ulv65299) Units=km Length=0.016486 bus1=p1udm13855.1.2 bus2=p1ulv65299.1.2 switch=n enabled=y phases=2 Linecode=1P_OH_AL_2/0_Rucina_0_416_0_2_2_2_2

New Line.l(r:p1udm13853-p1ulv4289) Units=km Length=0.0107313 bus1=p1udm13853.1.2 bus2=p1ulv4289.1.2 switch=n enabled=y phases=2 Linecode=1P_UG_AL_1/0_Brenau_0_416_0_2_2_2_2

New Line.l(r:p1udm13853-p1udm13855) Units=km Length=0.0375529 bus1=p1udm13855.1.2 bus2=p1udm13853.1.2 switch=n enabled=y phases=2 Linecode=1P_OH_AL_4/0_Zuzara_0_416_0_2_2_2_2

New Line.l(r:p1udm13855-p1udt3931lv) Units=km Length=0.00966189 bus1=p1udt3931lv.1.2 bus2=p1udm13855.1.2 switch=n enabled=y phases=2 Linecode=1P_OH_AL_2/0_Rucina_0_416_0_2_2_2_2

New Line.l(r:p1udm13863-p1ulv18121) Units=km Length=0.0148488 bus1=p1udm13863.1.2 bus2=p1ulv18121.1.2 switch=n enabled=y phases=2 Linecode=1P_UG_AL_1/0_Brenau_0_416_0_2_2_2_2

New Line.l(r:p1udm13863-p1ulv27061) Units=km Length=0.022779600000000004 bus1=p1udm13863.1.2 bus2=p1ulv27061.1.2 switch=n enabled=y phases=2 Linecode=1P_UG_AL_1/0_Brenau_0_416_0_2_2_2_2

New Line.l(r:p1udm13862-p1ulv4293) Units=km Length=0.014138 bus1=p1udm13862.1.2 bus2=p1ulv4293.1.2 switch=n enabled=y phases=2 Linecode=1P_UG_AL_1/0_Brenau_0_416_0_2_2_2_2

New Line.l(r:p1udm13862-p1udm13863) Units=km Length=0.00957673 bus1=p1udm13863.1.2 bus2=p1udm13862.1.2 switch=n enabled=y phases=2 Linecode=1P_UG_AL_1/0_Brenau_0_416_0_2_2_2_2

New Line.l(r:p1udm13863-p1udt3935lv) Units=km Length=0.0095817 bus1=p1udt3935lv.1.2 bus2=p1udm13863.1.2 switch=n enabled=y phases=2 Linecode=1P_UG_AL_4/0_Sweetbriar_0_416_0_2_2_2_2

New Line.l(r:p1udm13864-p1ulv19440) Units=km Length=0.0179241 bus1=p1udm13864.1.2 bus2=p1ulv19440.1.2 switch=n enabled=y phases=2 Linecode=1P_UG_AL_1/0_Brenau_0_416_0_2_2_2_2

New Line.l(r:p1udm13867-p1ulv30845) Units=km Length=0.01622 bus1=p1udm13867.1.2 bus2=p1ulv30845.1.2 switch=n enabled=y phases=2 Linecode=1P_UG_AL_1/0_Brenau_0_416_0_2_2_2_2

New Line.l(r:p1udm13865-p1ulv26422) Units=km Length=0.0142836 bus1=p1udm13865.1.2 bus2=p1ulv26422.1.2 switch=n enabled=y phases=2 Linecode=1P_UG_AL_1/0_Brenau_0_416_0_2_2_2_2

New Line.l(r:p1udm13865-p1udm13867) Units=km Length=0.0199638 bus1=p1udm13867.1.2 bus2=p1udm13865.1.2 switch=n enabled=y phases=2 Linecode=1P_UG_AL_1/0_Brenau_0_416_0_2_2_2_2

New Line.l(r:p1udm13864-p1udm13867) Units=km Length=0.009988900000000002 bus1=p1udm13864.1.2 bus2=p1udm13867.1.2 switch=n enabled=y phases=2 Linecode=1P_UG_AL_4/0_Sweetbriar_0_416_0_2_2_2_2

New Line.l(r:p1udm13864-p1udt3935lv) Units=km Length=0.00958541 bus1=p1udt3935lv.1.2 bus2=p1udm13864.1.2 switch=n enabled=y phases=2 Linecode=1P_UG_AL_4/0_Sweetbriar_0_416_0_2_2_2_2

New Line.l(r:p1udt3936lv-p1ulv4294) Units=km Length=0.024525300000000003 bus1=p1udt3936lv.1.2 bus2=p1ulv4294.1.2 switch=n enabled=y phases=2 Linecode=1P_UG_AL_1/0_Brenau_0_416_0_2_2_2_2

New Line.l(r:p1udt3936lv-p1ulv9945) Units=km Length=0.0259472 bus1=p1udt3936lv.1.2 bus2=p1ulv9945.1.2 switch=n enabled=y phases=2 Linecode=1P_UG_AL_1/0_Brenau_0_416_0_2_2_2_2

New Line.l(r:p1udm13870-p1ulv34700) Units=km Length=0.0239754 bus1=p1udm13870.1.2 bus2=p1ulv34700.1.2 switch=n enabled=y phases=2 Linecode=1P_UG_AL_1/0_Brenau_0_416_0_2_2_2_2

New Line.l(r:p1udm13870-p1ulv49149) Units=km Length=0.0203972 bus1=p1udm13870.1.2 bus2=p1ulv49149.1.2 switch=n enabled=y phases=2 Linecode=1P_UG_AL_1/0_Brenau_0_416_0_2_2_2_2

New Line.l(r:p1udm13870-p1udt3936lv) Units=km Length=0.00995211 bus1=p1udt3936lv.1.2 bus2=p1udm13870.1.2 switch=n enabled=y phases=2 Linecode=1P_UG_AL_2/0_Converse_0_416_0_2_2_2_2

New Line.l(r:p1udm15533-p1ulv4892) Units=km Length=0.009362970000000002 bus1=p1udm15533.1.2 bus2=p1ulv4892.1.2 switch=n enabled=y phases=2 Linecode=1P_UG_AL_1/0_Brenau_0_416_0_2_2_2_2

New Line.l(r:p1udm15534-p1ulv15516) Units=km Length=0.011938200000000001 bus1=p1udm15534.1.2 bus2=p1ulv15516.1.2 switch=n enabled=y phases=2 Linecode=1P_UG_AL_1/0_Brenau_0_416_0_2_2_2_2

New Line.l(r:p1udm15533-p1udm15534) Units=km Length=0.00987249 bus1=p1udm15533.1.2 bus2=p1udm15534.1.2 switch=n enabled=y phases=2 Linecode=1P_UG_AL_1/0_Brenau_0_416_0_2_2_2_2

New Line.l(r:p1udm15533-p1udt4419lv) Units=km Length=0.00986268 bus1=p1udt4419lv.1.2 bus2=p1udm15533.1.2 switch=n enabled=y phases=2 Linecode=1P_UG_AL_4/0_Sweetbriar_0_416_0_2_2_2_2

New Line.l(r:p1udm15535-p1ulv27056) Units=km Length=0.0102135 bus1=p1udm15535.1.2 bus2=p1ulv27056.1.2 switch=n enabled=y phases=2 Linecode=1P_UG_AL_1/0_Brenau_0_416_0_2_2_2_2

New Line.l(r:p1udm15535-p1udt4419lv) Units=km Length=0.0396213 bus1=p1udt4419lv.1.2 bus2=p1udm15535.1.2 switch=n enabled=y phases=2 Linecode=1P_UG_AL_1/0_Brenau_0_416_0_2_2_2_2

New Line.l(r:p1udm15536-p1ulv4893) Units=km Length=0.0200598 bus1=p1udm15536.1.2 bus2=p1ulv4893.1.2 switch=n enabled=y phases=2 Linecode=1P_UG_AL_1/0_Brenau_0_416_0_2_2_2_2

New Line.l(r:p1udm15536-p1ulv60846) Units=km Length=0.013740300000000002 bus1=p1udm15536.1.2 bus2=p1ulv60846.1.2 switch=n enabled=y phases=2 Linecode=1P_UG_AL_1/0_Brenau_0_416_0_2_2_2_2

New Line.l(r:p1udm15537-p1ulv46085) Units=km Length=0.013774400000000001 bus1=p1udm15537.1.2 bus2=p1ulv46085.1.2 switch=n enabled=y phases=2 Linecode=1P_UG_AL_1/0_Brenau_0_416_0_2_2_2_2

New Line.l(r:p1udm15536-p1udm15537) Units=km Length=0.009772110000000002 bus1=p1udm15536.1.2 bus2=p1udm15537.1.2 switch=n enabled=y phases=2 Linecode=1P_UG_AL_1/0_Brenau_0_416_0_2_2_2_2

New Line.l(r:p1udm15536-p1udt4420lv) Units=km Length=0.00977697 bus1=p1udt4420lv.1.2 bus2=p1udm15536.1.2 switch=n enabled=y phases=2 Linecode=1P_UG_AL_4/0_Sweetbriar_0_416_0_2_2_2_2

New Line.l(r:p1udm15538-p1ulv54812) Units=km Length=0.0117792 bus1=p1udm15538.1.2 bus2=p1ulv54812.1.2 switch=n enabled=y phases=2 Linecode=1P_UG_AL_1/0_Brenau_0_416_0_2_2_2_2

New Line.l(r:p1udm15538-p1udt4420lv) Units=km Length=0.0293212 bus1=p1udt4420lv.1.2 bus2=p1udm15538.1.2 switch=n enabled=y phases=2 Linecode=1P_UG_AL_1/0_Brenau_0_416_0_2_2_2_2

New Line.l(r:p1udm15554-p1ulv4898) Units=km Length=0.0483782 bus1=p1udm15554.1.2 bus2=p1ulv4898.1.2 switch=n enabled=y phases=2 Linecode=1P_UG_AL_1/0_Brenau_0_416_0_2_2_2_2

New Line.l(r:p1udm15555-p1ulv14933) Units=km Length=0.0268865 bus1=p1udm15555.1.2 bus2=p1ulv14933.1.2 switch=n enabled=y phases=2 Linecode=1P_UG_AL_4/0_Sweetbriar_0_416_0_2_2_2_2

New Line.l(r:p1udm15554-p1udm15555) Units=km Length=0.0180767 bus1=p1udm15554.1.2 bus2=p1udm15555.1.2 switch=n enabled=y phases=2 Linecode=1P_UG_AL_4/0_Sweetbriar_0_416_0_2_2_2_2

New Line.l(r:p1udm15554-p1udt4425lv) Units=km Length=0.007172890000000001 bus1=p1udt4425lv.1.2 bus2=p1udm15554.1.2 switch=n enabled=y phases=2 Linecode=1P_UG_AL_4/0_Sweetbriar_0_416_0_2_2_2_2

New Line.l(r:p1udm15556-p1ulv47927) Units=km Length=0.0851922 bus1=p1udm15556.1.2 bus2=p1ulv47927.1.2 switch=n enabled=y phases=2 Linecode=1P_UG_AL_1/0_Brenau_0_416_0_2_2_2_2

New Line.l(r:p1udm15556-p1udt4425lv) Units=km Length=0.0119737 bus1=p1udt4425lv.1.2 bus2=p1udm15556.1.2 switch=n enabled=y phases=2 Linecode=1P_UG_AL_1/0_Brenau_0_416_0_2_2_2_2

New Line.l(r:p1udm15558-p1ulv18788) Units=km Length=0.0153942 bus1=p1udm15558.1.2 bus2=p1ulv18788.1.2 switch=n enabled=y phases=2 Linecode=1P_UG_AL_1/0_Brenau_0_416_0_2_2_2_2
