New Line.l(r:p1udt19632lv-p1ulv36852) Units=km Length=0.0157836 bus1=p1udt19632lv.1.2 bus2=p1ulv36852.1.2 switch=n enabled=y phases=2 Linecode=1P_UG_AL_4/0_Sweetbriar_0_416_0_2_2_2_2

New Line.l(r:p1udt20750lv-p1ulv41237) Units=km Length=0.00741003 bus1=p1udt20750lv.1.2 bus2=p1ulv41237.1.2 switch=n enabled=y phases=2 Linecode=1P_UG_AL_4/0_Sweetbriar_0_416_0_2_2_2_2

New Line.l(r:p1udt22612lv-p1ulv50003) Units=km Length=0.00778977 bus1=p1udt22612lv.1.2 bus2=p1ulv50003.1.2 switch=n enabled=y phases=2 Linecode=1P_OH_AL_2/0_Rucina_0_416_0_2_2_2_2

New Line.l(r:p1udt11588-p1udt14662) Units=km Length=0.300901 bus1=p1udt14662.1.2.3 bus2=p1udt11588.1.2.3 switch=n enabled=y phases=3 Linecode=3P_OH_AL_ACSR_4/0_Penguin_12_47_0_3_3_3_3

New Line.l(r:p1udt14662-p1udt7899) Units=km Length=0.29629000000000005 bus1=p1udt7899.1.2.3 bus2=p1udt14662.1.2.3 switch=n enabled=y phases=3 Linecode=3P_OH_AL_ACSR_4/0_Penguin_12_47_0_3_3_3_3

New Line.l(r:p1udt7899-p1uhs14_1247) Units=km Length=0.0896512 bus1=p1udt7899-p1uhs14_1247x.1.2.3 bus2=p1udt7899.1.2.3 switch=n enabled=y phases=3 Linecode=3P_OH_AL_ACSR_4/0_Penguin_12_47_0_3_3_3_3

New Line.l(r:p1udt7899lv-p1ulv9590) Units=km Length=0.0189978 bus1=p1udt7899lv.1.2.3 bus2=p1ulv9590.1.2.3 switch=n enabled=y phases=3 Linecode=3P_UG_AL_350kcmil_15_0_416_0_3_3_3_3

New Line.l(r:p1udt14662lv-p1ulv22203) Units=km Length=0.0242953 bus1=p1udt14662lv.1.2.3 bus2=p1ulv22203.1.2.3 switch=n enabled=y phases=3 Linecode=3P_UG_AL_750kcmil_25_0_416_0_3_3_3_3

New Line.l(r:p1udt11588lv-p1ulv15795) Units=km Length=0.0127416 bus1=p1udt11588lv.1.2.3 bus2=p1ulv15795.1.2.3 switch=n enabled=y phases=3 Linecode=3P_UG_AL_750kcmil_25_0_416_0_3_3_3_3

New Line.l(r:p1udm8974-p1ulv2644) Units=km Length=0.005875520000000001 bus1=p1udm8974.1.2.3 bus2=p1ulv2644.1.2.3 switch=n enabled=y phases=3 Linecode=3P_UG_AL_750kcmil_25_0_416_0_3_3_3_3

New Line.l(r:p1udm8974-p1udt2496lv) Units=km Length=0.0142362 bus1=p1udt2496lv.1.2.3 bus2=p1udm8974.1.2.3 switch=n enabled=y phases=3 Linecode=3P_UG_AL_750kcmil_25_0_416_0_3_3_3_3

New Line.l(r:p1udm8975-p1ulv14557) Units=km Length=0.00637311 bus1=p1udm8975.1.2.3 bus2=p1ulv14557.1.2.3 switch=n enabled=y phases=3 Linecode=3P_UG_AL_750kcmil_25_0_416_0_3_3_3_3

New Line.l(r:p1udm8975-p1udt2496lv) Units=km Length=0.0142362 bus1=p1udt2496lv.1.2.3 bus2=p1udm8975.1.2.3 switch=n enabled=y phases=3 Linecode=3P_UG_AL_750kcmil_25_0_416_0_3_3_3_3

New Line.l(r:p1udt17093lv-p1ulv28613) Units=km Length=0.00900694 bus1=p1udt17093lv.1.2.3 bus2=p1ulv28613.1.2.3 switch=n enabled=y phases=3 Linecode=3P_UG_AL_750kcmil_25_0_416_0_3_3_3_3

New Line.l(r:p1udt17093-p1udt2496) Units=km Length=0.0450778 bus1=p1udt2496.1.2.3 bus2=p1udt17093.1.2.3 switch=n enabled=y phases=3 Linecode=3P_OH_AL_ACSR_4/0_Penguin_12_47_0_3_3_3_3

New Line.l(r:p1udt24546lv-p1ulv60507) Units=km Length=0.00799358 bus1=p1udt24546lv.1.2.3 bus2=p1ulv60507.1.2.3 switch=n enabled=y phases=3 Linecode=3P_UG_AL_750kcmil_25_0_416_0_3_3_3_3

New Line.l(r:p1udt24546-p1udt2496) Units=km Length=0.044704 bus1=p1udt2496.1.2.3 bus2=p1udt24546.1.2.3 switch=n enabled=y phases=3 Linecode=3P_OH_AL_ACSR_4/0_Penguin_12_47_0_3_3_3_3

New Line.l(r:p1udt11588-p1udt2496) Units=km Length=0.126684 bus1=p1udt11588.1.2.3 bus2=p1udt2496.1.2.3 switch=n enabled=y phases=3 Linecode=3P_OH_AL_ACSR_4/0_Penguin_12_47_0_3_3_3_3

New Line.l(r:p1udm10978-p1ulv3322) Units=km Length=0.0172111 bus1=p1udm10978.1.2.3 bus2=p1ulv3322.1.2.3 switch=n enabled=y phases=3 Linecode=3P_UG_AL_750kcmil_25_0_416_0_3_3_3_3

New Line.l(r:p1udm10978-p1udt3099lv) Units=km Length=0.0357902 bus1=p1udt3099lv.1.2.3 bus2=p1udm10978.1.2.3 switch=n enabled=y phases=3 Linecode=3P_UG_AL_750kcmil_25_0_416_0_3_3_3_3

New Line.l(r:p1udm10979-p1ulv53173) Units=km Length=0.00686837 bus1=p1udm10979.1.2.3 bus2=p1ulv53173.1.2.3 switch=n enabled=y phases=3 Linecode=3P_UG_AL_350kcmil_15_0_416_0_3_3_3_3

New Line.l(r:p1udm10979-p1udt3099lv) Units=km Length=0.0564169 bus1=p1udt3099lv.1.2.3 bus2=p1udm10979.1.2.3 switch=n enabled=y phases=3 Linecode=3P_UG_AL_350kcmil_15_0_416_0_3_3_3_3

New Line.l(r:p1udt13274lv-p1ulv60508) Units=km Length=0.0124704 bus1=p1udt13274lv.1.2.3 bus2=p1ulv60508.1.2.3 switch=n enabled=y phases=3 Linecode=3P_UG_AL_350kcmil_15_0_416_0_3_3_3_3

New Line.l(r:p1udm42592-p1ulv19055) Units=km Length=0.0120562 bus1=p1udm42592.1.2.3 bus2=p1ulv19055.1.2.3 switch=n enabled=y phases=3 Linecode=3P_UG_AL_350kcmil_15_0_416_0_3_3_3_3

New Line.l(r:p1udm42592-p1udt13274lv) Units=km Length=0.0160085 bus1=p1udt13274lv.1.2.3 bus2=p1udm42592.1.2.3 switch=n enabled=y phases=3 Linecode=3P_UG_AL_350kcmil_15_0_416_0_3_3_3_3

New Line.l(r:p1udt13274-p1udt19632) Units=km Length=0.0509078 bus1=p1udt19632.1.2.3 bus2=p1udt13274.1.2.3 switch=n enabled=y phases=3 Linecode=3P_OH_AL_ACSR_4/0_Penguin_12_47_0_3_3_3_3

New Line.l(r:p1udt20899lv-p1ulv41869) Units=km Length=0.0147518 bus1=p1udt20899lv.1.2.3 bus2=p1ulv41869.1.2.3 switch=n enabled=y phases=3 Linecode=3P_UG_AL_350kcmil_15_0_416_0_3_3_3_3

New Line.l(r:p1udt21728lv-p1ulv45691) Units=km Length=0.0178198 bus1=p1udt21728lv.1.2.3 bus2=p1ulv45691.1.2.3 switch=n enabled=y phases=3 Linecode=3P_UG_AL_350kcmil_15_0_416_0_3_3_3_3

New Line.l(r:p1udt20899-p1udt21728) Units=km Length=0.0438318 bus1=p1udt20899-p1udt21728x.1.2.3 bus2=p1udt20899-p1udt21728xx.1.2.3 switch=n enabled=y phases=3 Linecode=3P_UG_AL_4/0_25_12_47_0_3_3_3_3

New Line.l(r:p1udt19632-p1udt20899) Units=km Length=0.0664008 bus1=p1udt19632-p1udt20899x.1.2.3 bus2=p1udt19632-p1udt20899xx.1.2.3 switch=n enabled=y phases=3 Linecode=3P_UG_AL_4/0_25_12_47_0_3_3_3_3

New Line.l(r:p1udt19632-p1udt3099) Units=km Length=0.12559 bus1=p1udt19632-p1udt3099xx.1.2.3 bus2=p1udt19632-p1udt3099x.1.2.3 switch=n enabled=y phases=3 Linecode=3P_UG_AL_4/0_25_12_47_0_3_3_3_3

New Line.l(r:p1udt22612-p1udt3099) Units=km Length=0.0983973 bus1=p1udt22612.1.2.3 bus2=p1udt3099.1.2.3 switch=n enabled=y phases=3 Linecode=3P_OH_AL_ACSR_4/0_Penguin_12_47_0_3_3_3_3

New Line.l(r:p1udt20750-p1udt22612) Units=km Length=0.0430257 bus1=p1udt20750.1.2.3 bus2=p1udt22612.1.2.3 switch=n enabled=y phases=3 Linecode=3P_OH_AL_ACSR_4/0_Penguin_12_47_0_3_3_3_3

New Line.l(r:p1udt20750-p1udt7899) Units=km Length=0.036651 bus1=p1udt20750-p1udt7899xx.1.2.3 bus2=p1udt20750-p1udt7899x.1.2.3 switch=n enabled=y phases=3 Linecode=3P_UG_AL_4/0_25_12_47_0_3_3_3_3

New Line.padswitch(r:p1udt20899-p1udt21728)p1u_251219 Units=km Length=0.001 bus1=p1udt20899.1.2.3 bus2=p1udt20899-p1udt21728x.1.2.3 switch=y enabled=y phases=3 Linecode=padswitch_3_3_3_3

New Line.padswitch(r:p1udt20899-p1udt21728)p1u_251220 Units=km Length=0.001 bus1=p1udt20899-p1udt21728xx.1.2.3 bus2=p1udt21728.1.2.3 switch=y enabled=y phases=3 Linecode=padswitch_3_3_3_3_3

New Line.padswitch(r:p1udt19632-p1udt20899)p1u_251221 Units=km Length=0.001 bus1=p1udt19632.1.2.3 bus2=p1udt19632-p1udt20899x.1.2.3 switch=y enabled=y phases=3 Linecode=padswitch_3_3_3_3

New Line.padswitch(r:p1udt19632-p1udt20899)p1u_251222 Units=km Length=0.001 bus1=p1udt19632-p1udt20899xx.1.2.3 bus2=p1udt20899.1.2.3 switch=y enabled=y phases=3 Linecode=padswitch_3_3_3_1_3_3

New Line.padswitch(r:p1udt19632-p1udt3099)p1u_251223 Units=km Length=0.001 bus1=p1udt3099.1.2.3 bus2=p1udt19632-p1udt3099xx.1.2.3 switch=y enabled=y phases=3 Linecode=padswitch_3_3_3_3

New Line.padswitch(r:p1udt19632-p1udt3099)p1u_251224 Units=km Length=0.001 bus1=p1udt19632-p1udt3099x.1.2.3 bus2=p1udt19632.1.2.3 switch=y enabled=y phases=3 Linecode=padswitch_3_3_3_1_3_1_3

New Line.padswitch(r:p1udt20750-p1udt7899)p1u_251225 Units=km Length=0.001 bus1=p1udt7899.1.2.3 bus2=p1udt20750-p1udt7899xx.1.2.3 switch=y enabled=y phases=3 Linecode=padswitch_3_3_3_3

New Line.padswitch(r:p1udt20750-p1udt7899)p1u_251226 Units=km Length=0.001 bus1=p1udt20750-p1udt7899x.1.2.3 bus2=p1udt20750.1.2.3 switch=y enabled=y phases=3 Linecode=padswitch_3_3_3_3

New Line.padswitch(r:p1udt13577-p1udt21728)p1u_265845 Units=km Length=0.001 bus1=p1udt21728.1.2.3 bus2=p1udt13577-p1udt21728xx.1.2.3 switch=y enabled=n phases=3 Linecode=padswitch_3_3_3_1_3_1_3_1

New Line.elbswitch(r:p1udt21168-p1udt2496)p1u_265872 Units=km Length=0.001 bus1=p1udt2496.1.2.3 bus2=p1udt21168-p1udt2496x.1.2.3 switch=y enabled=n phases=3 Linecode=elbswitch_3_3_3_3

