New Load.load_p1ulv2644 conn=wye bus1=p1ulv2644.1.2.3 kV=0.48 Vminpu=0.8 Vmaxpu=1.2 model=1 kW=78.44080000000001 kvar=15.928083787059805 Phases=3

New Load.load_p1ulv3322 conn=wye bus1=p1ulv3322.1.2.3 kV=0.48 Vminpu=0.8 Vmaxpu=1.2 model=1 kW=78.3908 kvar=15.917930854028102 Phases=3

New Load.load_p1ulv9590 conn=wye bus1=p1ulv9590.1.2.3 kV=0.48 Vminpu=0.8 Vmaxpu=1.2 model=1 kW=24.530199999999997 kvar=4.981069557084251 Phases=3

New Load.load_p1ulv14557 conn=wye bus1=p1ulv14557.1.2.3 kV=0.48 Vminpu=0.8 Vmaxpu=1.2 model=1 kW=99.811 kvar=20.267487976540604 Phases=3

New Load.load_p1ulv15795 conn=wye bus1=p1ulv15795.1.2.3 kV=0.48 Vminpu=0.8 Vmaxpu=1.2 model=1 kW=147.411 kvar=29.933080222719205 Phases=3

New Load.load_p1ulv19055 conn=wye bus1=p1ulv19055.1.2.3 kV=0.48 Vminpu=0.8 Vmaxpu=1.2 model=1 kW=21.930200000000003 kvar=4.453117039435842 Phases=3

New Load.load_p1ulv22203 conn=wye bus1=p1ulv22203.1.2.3 kV=0.48 Vminpu=0.8 Vmaxpu=1.2 model=1 kW=85.47090000000001 kvar=17.35560647718292 Phases=3

New Load.load_p1ulv28613 conn=wye bus1=p1ulv28613.1.2.3 kV=0.48 Vminpu=0.8 Vmaxpu=1.2 model=1 kW=99.361 kvar=20.176111579255302 Phases=3

New Load.load_p1ulv36852 conn=wye bus1=p1ulv36852.1.2 kV=0.2080002494301389 Vminpu=0.8 Vmaxpu=1.2 model=1 kW=13.1201 kvar=2.657277168735866 Phases=2

New Load.load_p1ulv41237 conn=wye bus1=p1ulv41237.1.2 kV=0.2080002494301389 Vminpu=0.8 Vmaxpu=1.2 model=1 kW=13.0201 kvar=2.6370236861500937 Phases=2

New Load.load_p1ulv41869 conn=wye bus1=p1ulv41869.1.2.3 kV=0.48 Vminpu=0.8 Vmaxpu=1.2 model=1 kW=33.98030000000001 kvar=6.899994205941655 Phases=3

New Load.load_p1ulv45691 conn=wye bus1=p1ulv45691.1.2.3 kV=0.48 Vminpu=0.8 Vmaxpu=1.2 model=1 kW=27.4703 kvar=5.5780823252142895 Phases=3

New Load.load_p1ulv50003 conn=wye bus1=p1ulv50003.1.2 kV=0.2080002494301389 Vminpu=0.8 Vmaxpu=1.2 model=1 kW=15.9302 kvar=3.2430909415389464 Phases=2

New Load.load_p1ulv53173 conn=wye bus1=p1ulv53173.1.2.3 kV=0.48 Vminpu=0.8 Vmaxpu=1.2 model=1 kW=30.190300000000004 kvar=6.13040188213878 Phases=3

New Load.load_p1ulv60507 conn=wye bus1=p1ulv60507.1.2.3 kV=0.48 Vminpu=0.8 Vmaxpu=1.2 model=1 kW=99.791 kvar=20.263426803327924 Phases=3

New Load.load_p1ulv60508 conn=wye bus1=p1ulv60508.1.2.3 kV=0.48 Vminpu=0.8 Vmaxpu=1.2 model=1 kW=30.570299999999996 kvar=6.2075641731796996 Phases=3

