New Load.load_p1rlv1 conn=wye bus1=p1rlv1.1.2 kV=0.2080002494301389 Vminpu=0.8 Vmaxpu=1.2 model=1 kW=5.62006 kvar=1.141201856282742 Phases=2

New Load.load_p1rlv11 conn=wye bus1=p1rlv11.1.2 kV=0.2080002494301389 Vminpu=0.8 Vmaxpu=1.2 model=1 kW=4.96005 kvar=1.0097734632697801 Phases=2

New Load.load_p1rlv12 conn=wye bus1=p1rlv12.1.2 kV=0.2080002494301389 Vminpu=0.8 Vmaxpu=1.2 model=1 kW=4.87005 kvar=0.9889058302206326 Phases=2

New Load.load_p1rlv13 conn=wye bus1=p1rlv13.1.2 kV=0.2080002494301389 Vminpu=0.8 Vmaxpu=1.2 model=1 kW=7.53008 kvar=1.529047959266903 Phases=2

New Load.load_p1rlv126 conn=wye bus1=p1rlv126.1.2 kV=0.2080002494301389 Vminpu=0.8 Vmaxpu=1.2 model=1 kW=4.72005 kvar=0.9609139495179535 Phases=2

New Load.load_p1rlv127 conn=wye bus1=p1rlv127.1.2 kV=0.2080002494301389 Vminpu=0.8 Vmaxpu=1.2 model=1 kW=1.67002 kvar=0.339984854815939 Phases=2

New Load.load_p1rlv128 conn=wye bus1=p1rlv128.1.2 kV=0.2080002494301389 Vminpu=0.8 Vmaxpu=1.2 model=1 kW=4.90005 kvar=1.6105685495816884 Phases=2

New Load.load_p1rlv132 conn=wye bus1=p1rlv132.1.2 kV=0.2080002494301389 Vminpu=0.8 Vmaxpu=1.2 model=1 kW=4.98005 kvar=1.011242282890373 Phases=2

New Load.load_p1rlv147 conn=wye bus1=p1rlv147.1.2 kV=0.2080002494301389 Vminpu=0.8 Vmaxpu=1.2 model=1 kW=6.72007 kvar=1.3715849355020187 Phases=2

New Load.load_p1rlv148 conn=wye bus1=p1rlv148.1.2 kV=0.2080002494301389 Vminpu=0.8 Vmaxpu=1.2 model=1 kW=9.7301 kvar=1.9706841090781968 Phases=2

New Load.load_p1rlv264 conn=wye bus1=p1rlv264.1.2 kV=0.2080002494301389 Vminpu=0.8 Vmaxpu=1.2 model=1 kW=5.70006 kvar=1.1604256664843182 Phases=2

New Load.load_p1rlv265 conn=wye bus1=p1rlv265.1.2 kV=0.2080002494301389 Vminpu=0.8 Vmaxpu=1.2 model=1 kW=7.030070000000001 kvar=1.43119084100543 Phases=2

New Load.load_p1rlv266 conn=wye bus1=p1rlv266.1.2 kV=0.2080002494301389 Vminpu=0.8 Vmaxpu=1.2 model=1 kW=2.1200200000000002 kvar=0.6998214961209928 Phases=2

New Load.load_p1rlv277 conn=wye bus1=p1rlv277.1.2 kV=0.2080002494301389 Vminpu=0.8 Vmaxpu=1.2 model=1 kW=6.47006 kvar=1.3104124753889972 Phases=2

New Load.load_p1rlv290 conn=wye bus1=p1rlv290.1.2 kV=0.2080002494301389 Vminpu=0.8 Vmaxpu=1.2 model=1 kW=6.33006 kvar=1.2886818900828627 Phases=2

New Load.load_p1rlv389 conn=wye bus1=p1rlv389.1.2 kV=0.2080002494301389 Vminpu=0.8 Vmaxpu=1.2 model=1 kW=1.39001 kvar=0.4598269662194208 Phases=2

New Load.load_p1rlv390 conn=wye bus1=p1rlv390.1.2 kV=0.2080002494301389 Vminpu=0.8 Vmaxpu=1.2 model=1 kW=3.24003 kvar=1.0695383260898008 Phases=2

New Load.load_p1rlv391 conn=wye bus1=p1rlv391.1.2 kV=0.2080002494301389 Vminpu=0.8 Vmaxpu=1.2 model=1 kW=6.90007 kvar=1.4011189724808741 Phases=2

New Load.load_p1rlv403 conn=wye bus1=p1rlv403.1.2 kV=0.2080002494301389 Vminpu=0.8 Vmaxpu=1.2 model=1 kW=6.310060000000001 kvar=1.2813123321202051 Phases=2

New Load.load_p1rlv521 conn=wye bus1=p1rlv521.1.2 kV=0.2080002494301389 Vminpu=0.8 Vmaxpu=1.2 model=1 kW=6.950070000000001 kvar=1.4112719055125744 Phases=2

New Load.load_p1rlv522 conn=wye bus1=p1rlv522.1.2 kV=0.2080002494301389 Vminpu=0.8 Vmaxpu=1.2 model=1 kW=3.02003 kvar=0.9904908739898591 Phases=2

New Load.load_p1rlv523 conn=wye bus1=p1rlv523.1.2 kV=0.2080002494301389 Vminpu=0.8 Vmaxpu=1.2 model=1 kW=2.38002 kvar=0.7797381477161418 Phases=2

New Load.load_p1rlv529 conn=wye bus1=p1rlv529.1.2 kV=0.2080002494301389 Vminpu=0.8 Vmaxpu=1.2 model=1 kW=4.43004 kvar=0.8995579889550643 Phases=2

New Load.load_p1rlv545 conn=wye bus1=p1rlv545.1.2 kV=0.2080002494301389 Vminpu=0.8 Vmaxpu=1.2 model=1 kW=5.65006 kvar=1.1502466011193542 Phases=2

New Load.load_p1rlv663 conn=wye bus1=p1rlv663.1.2 kV=0.2080002494301389 Vminpu=0.8 Vmaxpu=1.2 model=1 kW=5.86006 kvar=1.1899359348349032 Phases=2

New Load.load_p1rlv664 conn=wye bus1=p1rlv664.1.2 kV=0.2080002494301389 Vminpu=0.8 Vmaxpu=1.2 model=1 kW=1.80002 kvar=0.5897195236393014 Phases=2

New Load.load_p1rlv822 conn=wye bus1=p1rlv822.1.2 kV=0.2080002494301389 Vminpu=0.8 Vmaxpu=1.2 model=1 kW=10.3701 kvar=2.1111585148242353 Phases=2

New Load.load_p1rlv823 conn=wye bus1=p1rlv823.1.2 kV=0.2080002494301389 Vminpu=0.8 Vmaxpu=1.2 model=1 kW=3.85004 kvar=1.2599737475602346 Phases=2

New Load.load_p1rlv845 conn=wye bus1=p1rlv845.1.2 kV=0.2080002494301389 Vminpu=0.8 Vmaxpu=1.2 model=1 kW=5.08005 kvar=1.0288870420985081 Phases=2

New Load.load_p1rlv1078 conn=wye bus1=p1rlv1078.1.2 kV=0.2080002494301389 Vminpu=0.8 Vmaxpu=1.2 model=1 kW=2.56003 kvar=0.8396229018056969 Phases=2

New Load.load_p1rlv1079 conn=wye bus1=p1rlv1079.1.2 kV=0.2080002494301389 Vminpu=0.8 Vmaxpu=1.2 model=1 kW=0.6000060000000002 kvar=0.1999667866766546 Phases=2

New Load.load_p1rlv1087 conn=wye bus1=p1rlv1087.1.2 kV=0.2080002494301389 Vminpu=0.8 Vmaxpu=1.2 model=1 kW=5.55006 kvar=1.1298884703894267 Phases=2

New Load.load_p1rlv1088 conn=wye bus1=p1rlv1088.1.2 kV=0.2080002494301389 Vminpu=0.8 Vmaxpu=1.2 model=1 kW=0.950009 kvar=0.30988669297827337 Phases=2

New Load.load_p1rlv1097 conn=wye bus1=p1rlv1097.1.2 kV=0.2080002494301389 Vminpu=0.8 Vmaxpu=1.2 model=1 kW=4.06004 kvar=0.8201678426594468 Phases=2

New Load.load_p1rlv1098 conn=wye bus1=p1rlv1098.1.2 kV=0.2080002494301389 Vminpu=0.8 Vmaxpu=1.2 model=1 kW=8.11008 kvar=1.6510606887017225 Phases=2

New Load.load_p1rlv1099 conn=wye bus1=p1rlv1099.1.2 kV=0.2080002494301389 Vminpu=0.8 Vmaxpu=1.2 model=1 kW=2.50002 kvar=0.8199411909127153 Phases=2

New Load.load_p1rlv1205 conn=wye bus1=p1rlv1205.1.2 kV=0.2080002494301389 Vminpu=0.8 Vmaxpu=1.2 model=1 kW=4.81005 kvar=0.9792362671748885 Phases=2

New Load.load_p1rlv1206 conn=wye bus1=p1rlv1206.1.2 kV=0.2080002494301389 Vminpu=0.8 Vmaxpu=1.2 model=1 kW=1.79002 kvar=0.35971543666359257 Phases=2

New Load.load_p1rlv1207 conn=wye bus1=p1rlv1207.1.2 kV=0.2080002494301389 Vminpu=0.8 Vmaxpu=1.2 model=1 kW=6.55007 kvar=2.15057868540536 Phases=2

New Load.load_p1rlv1215 conn=wye bus1=p1rlv1215.1.2 kV=0.2080002494301389 Vminpu=0.8 Vmaxpu=1.2 model=1 kW=6.25006 kvar=1.269128812482165 Phases=2

New Load.load_p1rlv1223 conn=wye bus1=p1rlv1223.1.2 kV=0.2080002494301389 Vminpu=0.8 Vmaxpu=1.2 model=1 kW=7.86008 kvar=1.6001653618769034 Phases=2

New Load.load_p1rlv1333 conn=wye bus1=p1rlv1333.1.2 kV=0.2080002494301389 Vminpu=0.8 Vmaxpu=1.2 model=1 kW=5.170050000000001 kvar=1.0498234284108339 Phases=2

New Load.load_p1rlv1334 conn=wye bus1=p1rlv1334.1.2 kV=0.2080002494301389 Vminpu=0.8 Vmaxpu=1.2 model=1 kW=4.450040000000001 kvar=0.898951662187625 Phases=2

New Load.load_p1rlv1335 conn=wye bus1=p1rlv1335.1.2 kV=0.2080002494301389 Vminpu=0.8 Vmaxpu=1.2 model=1 kW=5.59006 kvar=1.1292468671581726 Phases=2

New Load.load_p1rlv1336 conn=wye bus1=p1rlv1336.1.2 kV=0.2080002494301389 Vminpu=0.8 Vmaxpu=1.2 model=1 kW=0.96001 kvar=0.3199469919925053 Phases=2

New Load.load_p1rlv1337 conn=wye bus1=p1rlv1337.1.2 kV=0.2080002494301389 Vminpu=0.8 Vmaxpu=1.2 model=1 kW=0.690007 kvar=0.22996183800561726 Phases=2

New Load.load_p1rlv1338 conn=wye bus1=p1rlv1338.1.2 kV=0.2080002494301389 Vminpu=0.8 Vmaxpu=1.2 model=1 kW=1.3200100000000001 kvar=0.4399258642097759 Phases=2

New Load.load_p1rlv1349 conn=wye bus1=p1rlv1349.1.2 kV=0.2080002494301389 Vminpu=0.8 Vmaxpu=1.2 model=1 kW=5.43005 kvar=1.0997742311487098 Phases=2

New Load.load_p1rlv1360 conn=wye bus1=p1rlv1360.1.2 kV=0.2080002494301389 Vminpu=0.8 Vmaxpu=1.2 model=1 kW=6.66007 kvar=1.348896117650222 Phases=2

New Load.load_p1rlv1361 conn=wye bus1=p1rlv1361.1.2 kV=0.2080002494301389 Vminpu=0.8 Vmaxpu=1.2 model=1 kW=6.29006 kvar=1.280538637790892 Phases=2

New Load.load_p1rlv1487 conn=wye bus1=p1rlv1487.1.2 kV=0.2080002494301389 Vminpu=0.8 Vmaxpu=1.2 model=1 kW=5.33005 kvar=1.0795207485629381 Phases=2

New Load.load_p1rlv1488 conn=wye bus1=p1rlv1488.1.2 kV=0.2080002494301389 Vminpu=0.8 Vmaxpu=1.2 model=1 kW=4.51005 kvar=1.4807807244979738 Phases=2

New Load.load_p1rlv1494 conn=wye bus1=p1rlv1494.1.2 kV=0.2080002494301389 Vminpu=0.8 Vmaxpu=1.2 model=1 kW=7.030070000000001 kvar=1.43119084100543 Phases=2

New Load.load_p1rlv1616 conn=wye bus1=p1rlv1616.1.2 kV=0.2080002494301389 Vminpu=0.8 Vmaxpu=1.2 model=1 kW=3.82004 kvar=1.259648462293001 Phases=2

New Load.load_p1rlv1622 conn=wye bus1=p1rlv1622.1.2 kV=0.2080002494301389 Vminpu=0.8 Vmaxpu=1.2 model=1 kW=6.100060000000001 kvar=1.2386700133870643 Phases=2

New Load.load_p1rlv1623 conn=wye bus1=p1rlv1623.1.2 kV=0.2080002494301389 Vminpu=0.8 Vmaxpu=1.2 model=1 kW=18.3202 kvar=3.7200752745470855 Phases=2

New Load.load_p1rlv1730 conn=wye bus1=p1rlv1730.1.2 kV=0.2080002494301389 Vminpu=0.8 Vmaxpu=1.2 model=1 kW=1.46001 kvar=0.300265941294546 Phases=2

New Load.load_p1rlv1748 conn=wye bus1=p1rlv1748.1.2 kV=0.2080002494301389 Vminpu=0.8 Vmaxpu=1.2 model=1 kW=0.490005 kvar=0.16001116456332976 Phases=2

New Load.load_p1rlv1756 conn=wye bus1=p1rlv1756.1.2 kV=0.2080002494301389 Vminpu=0.8 Vmaxpu=1.2 model=1 kW=5.88006 kvar=1.1909169281329426 Phases=2

New Load.load_p1rlv1867 conn=wye bus1=p1rlv1867.1.2 kV=0.2080002494301389 Vminpu=0.8 Vmaxpu=1.2 model=1 kW=4.14004 kvar=0.8406709773712032 Phases=2

New Load.load_p1rlv1889 conn=wye bus1=p1rlv1889.1.2 kV=0.2080002494301389 Vminpu=0.8 Vmaxpu=1.2 model=1 kW=4.04004 kvar=0.8203651113078028 Phases=2

New Load.load_p1rlv1890 conn=wye bus1=p1rlv1890.1.2 kV=0.2080002494301389 Vminpu=0.8 Vmaxpu=1.2 model=1 kW=5.45005 kvar=1.109528303846426 Phases=2

New Load.load_p1rlv1891 conn=wye bus1=p1rlv1891.1.2 kV=0.2080002494301389 Vminpu=0.8 Vmaxpu=1.2 model=1 kW=7.00007 kvar=1.4214248385442743 Phases=2

New Load.load_p1rlv1892 conn=wye bus1=p1rlv1892.1.2 kV=0.2080002494301389 Vminpu=0.8 Vmaxpu=1.2 model=1 kW=5.19005 kvar=1.0511658729428572 Phases=2

New Load.load_p1rlv2009 conn=wye bus1=p1rlv2009.1.2 kV=0.2080002494301389 Vminpu=0.8 Vmaxpu=1.2 model=1 kW=5.16005 kvar=1.0504897247296356 Phases=2

New Load.load_p1rlv2010 conn=wye bus1=p1rlv2010.1.2 kV=0.2080002494301389 Vminpu=0.8 Vmaxpu=1.2 model=1 kW=3.68004 kvar=1.2095706544224234 Phases=2

New Load.load_p1rlv2023 conn=wye bus1=p1rlv2023.1.2 kV=0.2080002494301389 Vminpu=0.8 Vmaxpu=1.2 model=1 kW=10.1101 kvar=2.04764734290413 Phases=2

New Load.load_p1rlv2024 conn=wye bus1=p1rlv2024.1.2 kV=0.2080002494301389 Vminpu=0.8 Vmaxpu=1.2 model=1 kW=2.41002 kvar=0.489375433301163 Phases=2

New Load.load_p1rlv2036 conn=wye bus1=p1rlv2036.1.2 kV=0.2080002494301389 Vminpu=0.8 Vmaxpu=1.2 model=1 kW=5.12005 kvar=1.0396704953791336 Phases=2

New Load.load_p1rlv2132 conn=wye bus1=p1rlv2132.1.2 kV=0.2080002494301389 Vminpu=0.8 Vmaxpu=1.2 model=1 kW=7.070070000000001 kvar=1.4393340932974013 Phases=2

New Load.load_p1rlv2133 conn=wye bus1=p1rlv2133.1.2 kV=0.2080002494301389 Vminpu=0.8 Vmaxpu=1.2 model=1 kW=6.92007 kvar=1.4087968972025093 Phases=2

New Load.load_p1rlv2134 conn=wye bus1=p1rlv2134.1.2 kV=0.2080002494301389 Vminpu=0.8 Vmaxpu=1.2 model=1 kW=9.06009 kvar=1.839729740623536 Phases=2

New Load.load_p1rlv2135 conn=wye bus1=p1rlv2135.1.2 kV=0.2080002494301389 Vminpu=0.8 Vmaxpu=1.2 model=1 kW=2.84003 kvar=0.9304458498912929 Phases=2

New Load.load_p1rlv2136 conn=wye bus1=p1rlv2136.1.2 kV=0.2080002494301389 Vminpu=0.8 Vmaxpu=1.2 model=1 kW=0.6600070000000001 kvar=0.21996359865417808 Phases=2

New Load.load_p1rlv2151 conn=wye bus1=p1rlv2151.1.2 kV=0.2080002494301389 Vminpu=0.8 Vmaxpu=1.2 model=1 kW=7.05007 kvar=1.4315777715759745 Phases=2

New Load.load_p1rlv2152 conn=wye bus1=p1rlv2152.1.2 kV=0.2080002494301389 Vminpu=0.8 Vmaxpu=1.2 model=1 kW=4.90005 kvar=0.9898580894334593 Phases=2

New Load.load_p1rlv2153 conn=wye bus1=p1rlv2153.1.2 kV=0.2080002494301389 Vminpu=0.8 Vmaxpu=1.2 model=1 kW=9.6501 kvar=1.959536380984205 Phases=2

New Load.load_p1rlv2291 conn=wye bus1=p1rlv2291.1.2 kV=0.2080002494301389 Vminpu=0.8 Vmaxpu=1.2 model=1 kW=2.60003 kvar=0.5306733382023273 Phases=2

New Load.load_p1rlv2292 conn=wye bus1=p1rlv2292.1.2 kV=0.2080002494301389 Vminpu=0.8 Vmaxpu=1.2 model=1 kW=4.82005 kvar=0.9787528971889325 Phases=2

New Load.load_p1rlv2303 conn=wye bus1=p1rlv2303.1.2 kV=0.2080002494301389 Vminpu=0.8 Vmaxpu=1.2 model=1 kW=6.52007 kvar=1.3205412420301414 Phases=2

New Load.load_p1rlv2313 conn=wye bus1=p1rlv2313.1.2 kV=0.2080002494301389 Vminpu=0.8 Vmaxpu=1.2 model=1 kW=5.62006 kvar=1.141201856282742 Phases=2

New Load.load_p1rlv2427 conn=wye bus1=p1rlv2427.1.2 kV=0.2080002494301389 Vminpu=0.8 Vmaxpu=1.2 model=1 kW=7.42007 kvar=2.4388590683145273 Phases=2

New Load.load_p1rlv2428 conn=wye bus1=p1rlv2428.1.2 kV=0.2080002494301389 Vminpu=0.8 Vmaxpu=1.2 model=1 kW=5.10005 kvar=1.67992216491677 Phases=2

New Load.load_p1rlv2441 conn=wye bus1=p1rlv2441.1.2 kV=0.2080002494301389 Vminpu=0.8 Vmaxpu=1.2 model=1 kW=5.11005 kvar=1.0403106593646716 Phases=2

New Load.load_p1rlv2443 conn=wye bus1=p1rlv2443.1.2 kV=0.2080002494301389 Vminpu=0.8 Vmaxpu=1.2 model=1 kW=5.21005 kvar=1.0606687900945995 Phases=2

New Load.load_p1rlv2546 conn=wye bus1=p1rlv2546.1.2 kV=0.2080002494301389 Vminpu=0.8 Vmaxpu=1.2 model=1 kW=1.0500100000000003 kvar=0.20989437432515054 Phases=2

New Load.load_p1rlv2547 conn=wye bus1=p1rlv2547.1.2 kV=0.2080002494301389 Vminpu=0.8 Vmaxpu=1.2 model=1 kW=6.01006 kvar=1.9796733378064295 Phases=2

New Load.load_p1rlv2548 conn=wye bus1=p1rlv2548.1.2 kV=0.2080002494301389 Vminpu=0.8 Vmaxpu=1.2 model=1 kW=7.89008 kvar=2.59054298261593 Phases=2

New Load.load_p1rlv2549 conn=wye bus1=p1rlv2549.1.2 kV=0.2080002494301389 Vminpu=0.8 Vmaxpu=1.2 model=1 kW=17.5702 kvar=5.781277953220338 Phases=2

New Load.load_p1rlv2550 conn=wye bus1=p1rlv2550.1.2 kV=0.2080002494301389 Vminpu=0.8 Vmaxpu=1.2 model=1 kW=9.9001 kvar=3.2610263477598282 Phases=2

New Load.load_p1rlv2558 conn=wye bus1=p1rlv2558.1.2 kV=0.2080002494301389 Vminpu=0.8 Vmaxpu=1.2 model=1 kW=6.00006 kvar=1.2215000586741016 Phases=2

New Load.load_p1rlv2559 conn=wye bus1=p1rlv2559.1.2 kV=0.2080002494301389 Vminpu=0.8 Vmaxpu=1.2 model=1 kW=13.5601 kvar=2.7534957440631618 Phases=2

New Load.load_p1rlv2560 conn=wye bus1=p1rlv2560.1.2 kV=0.2080002494301389 Vminpu=0.8 Vmaxpu=1.2 model=1 kW=5.380050000000001 kvar=1.7702453274420942 Phases=2

New Load.load_p1rlv2579 conn=wye bus1=p1rlv2579.1.2 kV=0.2080002494301389 Vminpu=0.8 Vmaxpu=1.2 model=1 kW=5.84006 kvar=1.1889270495062174 Phases=2

New Load.load_p1rlv2580 conn=wye bus1=p1rlv2580.1.2 kV=0.2080002494301389 Vminpu=0.8 Vmaxpu=1.2 model=1 kW=5.40005 kvar=1.0993492384814623 Phases=2

New Load.load_p1rlv2691 conn=wye bus1=p1rlv2691.1.2 kV=0.2080002494301389 Vminpu=0.8 Vmaxpu=1.2 model=1 kW=5.560060000000001 kvar=1.129018336644702 Phases=2

New Load.load_p1rlv2692 conn=wye bus1=p1rlv2692.1.2 kV=0.2080002494301389 Vminpu=0.8 Vmaxpu=1.2 model=1 kW=7.10007 kvar=1.4417307046076748 Phases=2

New Load.load_p1rlv2693 conn=wye bus1=p1rlv2693.1.2 kV=0.2080002494301389 Vminpu=0.8 Vmaxpu=1.2 model=1 kW=15.7202 kvar=5.172556128001637 Phases=2

New Load.load_p1rlv2694 conn=wye bus1=p1rlv2694.1.2 kV=0.2080002494301389 Vminpu=0.8 Vmaxpu=1.2 model=1 kW=4.71005 kvar=1.5497893150655915 Phases=2

New Load.load_p1rlv2695 conn=wye bus1=p1rlv2695.1.2 kV=0.2080002494301389 Vminpu=0.8 Vmaxpu=1.2 model=1 kW=5.22005 kvar=1.719449357746254 Phases=2

New Load.load_p1rlv2696 conn=wye bus1=p1rlv2696.1.2 kV=0.2080002494301389 Vminpu=0.8 Vmaxpu=1.2 model=1 kW=6.40006 kvar=2.099052334906454 Phases=2

New Load.load_p1rlv2697 conn=wye bus1=p1rlv2697.1.2 kV=0.2080002494301389 Vminpu=0.8 Vmaxpu=1.2 model=1 kW=11.510100000000001 kvar=3.7791009450103954 Phases=2

New Load.load_p1rlv2701 conn=wye bus1=p1rlv2701.1.2 kV=0.2080002494301389 Vminpu=0.8 Vmaxpu=1.2 model=1 kW=2.75003 kvar=0.5598547025122315 Phases=2

New Load.load_p1rlv2716 conn=wye bus1=p1rlv2716.1.2 kV=0.2080002494301389 Vminpu=0.8 Vmaxpu=1.2 model=1 kW=4.98005 kvar=1.011242282890373 Phases=2

New Load.load_p1rlv2717 conn=wye bus1=p1rlv2717.1.2 kV=0.2080002494301389 Vminpu=0.8 Vmaxpu=1.2 model=1 kW=6.65007 kvar=1.3503543073223732 Phases=2

New Load.load_p1rlv2832 conn=wye bus1=p1rlv2832.1.2 kV=0.2080002494301389 Vminpu=0.8 Vmaxpu=1.2 model=1 kW=5.01005 kvar=1.019952528634744 Phases=2

New Load.load_p1rlv2842 conn=wye bus1=p1rlv2842.1.2 kV=0.2080002494301389 Vminpu=0.8 Vmaxpu=1.2 model=1 kW=5.850060000000001 kvar=1.19096286257921 Phases=2

New Load.load_p1rlv2843 conn=wye bus1=p1rlv2843.1.2 kV=0.2080002494301389 Vminpu=0.8 Vmaxpu=1.2 model=1 kW=6.68007 kvar=1.359937383450683 Phases=2

New Load.load_p1rlv2844 conn=wye bus1=p1rlv2844.1.2 kV=0.2080002494301389 Vminpu=0.8 Vmaxpu=1.2 model=1 kW=6.49006 kvar=1.3212548992507473 Phases=2

New Load.load_p1rlv2853 conn=wye bus1=p1rlv2853.1.2 kV=0.2080002494301389 Vminpu=0.8 Vmaxpu=1.2 model=1 kW=7.16007 kvar=1.4501635305790819 Phases=2

New Load.load_p1rlv2854 conn=wye bus1=p1rlv2854.1.2 kV=0.2080002494301389 Vminpu=0.8 Vmaxpu=1.2 model=1 kW=5.14005 kvar=1.0410391316499712 Phases=2

New Load.load_p1rlv2855 conn=wye bus1=p1rlv2855.1.2 kV=0.2080002494301389 Vminpu=0.8 Vmaxpu=1.2 model=1 kW=1.90002 kvar=0.6197740383434039 Phases=2

New Load.load_p1rlv2949 conn=wye bus1=p1rlv2949.1.2 kV=0.2080002494301389 Vminpu=0.8 Vmaxpu=1.2 model=1 kW=5.37005 kvar=1.0904351605376348 Phases=2

New Load.load_p1rlv2950 conn=wye bus1=p1rlv2950.1.2 kV=0.2080002494301389 Vminpu=0.8 Vmaxpu=1.2 model=1 kW=1.78002 kvar=0.5901021676361474 Phases=2

New Load.load_p1rlv2958 conn=wye bus1=p1rlv2958.1.2 kV=0.2080002494301389 Vminpu=0.8 Vmaxpu=1.2 model=1 kW=2.1200200000000002 kvar=0.6998214961209928 Phases=2

New Load.load_p1rlv2959 conn=wye bus1=p1rlv2959.1.2 kV=0.2080002494301389 Vminpu=0.8 Vmaxpu=1.2 model=1 kW=7.030070000000001 kvar=1.43119084100543 Phases=2

New Load.load_p1rlv3076 conn=wye bus1=p1rlv3076.1.2 kV=0.2080002494301389 Vminpu=0.8 Vmaxpu=1.2 model=1 kW=8.44008 kvar=2.771123995791812 Phases=2

New Load.load_p1rlv3078 conn=wye bus1=p1rlv3078.1.2 kV=0.2080002494301389 Vminpu=0.8 Vmaxpu=1.2 model=1 kW=0.950009 kvar=0.30988669297827337 Phases=2

New Load.load_p1rlv3086 conn=wye bus1=p1rlv3086.1.2 kV=0.2080002494301389 Vminpu=0.8 Vmaxpu=1.2 model=1 kW=7.00007 kvar=1.4214248385442743 Phases=2

New Load.load_p1rlv3201 conn=wye bus1=p1rlv3201.1.2 kV=0.2080002494301389 Vminpu=0.8 Vmaxpu=1.2 model=1 kW=5.29005 kvar=1.0686419089616372 Phases=2

New Load.load_p1rlv3208 conn=wye bus1=p1rlv3208.1.2 kV=0.2080002494301389 Vminpu=0.8 Vmaxpu=1.2 model=1 kW=8.26008 kvar=1.681597884796614 Phases=2

New Load.load_p1rlv3220 conn=wye bus1=p1rlv3220.1.2 kV=0.2080002494301389 Vminpu=0.8 Vmaxpu=1.2 model=1 kW=6.89007 kvar=1.399088385874534 Phases=2

New Load.load_p1rlv3221 conn=wye bus1=p1rlv3221.1.2 kV=0.2080002494301389 Vminpu=0.8 Vmaxpu=1.2 model=1 kW=5.37005 kvar=1.0904351605376348 Phases=2

New Load.load_p1rlv3222 conn=wye bus1=p1rlv3222.1.2 kV=0.2080002494301389 Vminpu=0.8 Vmaxpu=1.2 model=1 kW=6.42006 kvar=1.300285734096111 Phases=2

New Load.load_p1rlv3328 conn=wye bus1=p1rlv3328.1.2 kV=0.2080002494301389 Vminpu=0.8 Vmaxpu=1.2 model=1 kW=4.97005 kvar=1.009211696284033 Phases=2

New Load.load_p1rlv3329 conn=wye bus1=p1rlv3329.1.2 kV=0.2080002494301389 Vminpu=0.8 Vmaxpu=1.2 model=1 kW=4.25004 kvar=0.8607811112883423 Phases=2

New Load.load_p1rlv3330 conn=wye bus1=p1rlv3330.1.2 kV=0.2080002494301389 Vminpu=0.8 Vmaxpu=1.2 model=1 kW=5.75006 kvar=1.1706047318492825 Phases=2

New Load.load_p1rlv3331 conn=wye bus1=p1rlv3331.1.2.3 kV=0.48 Vminpu=0.8 Vmaxpu=1.2 model=1 kW=20.0202 kvar=6.580321522501876 Phases=3

New Load.load_p1rlv3474 conn=wye bus1=p1rlv3474.1.2 kV=0.2080002494301389 Vminpu=0.8 Vmaxpu=1.2 model=1 kW=6.87007 kvar=1.3986178318375455 Phases=2

New Load.load_p1rlv3475 conn=wye bus1=p1rlv3475.1.2 kV=0.2080002494301389 Vminpu=0.8 Vmaxpu=1.2 model=1 kW=5.84006 kvar=1.1889270495062174 Phases=2

New Load.load_p1rlv3476 conn=wye bus1=p1rlv3476.1.2 kV=0.2080002494301389 Vminpu=0.8 Vmaxpu=1.2 model=1 kW=1.71002 kvar=0.34990954720882234 Phases=2

New Load.load_p1rlv3477 conn=wye bus1=p1rlv3477.1.2 kV=0.2080002494301389 Vminpu=0.8 Vmaxpu=1.2 model=1 kW=2.90003 kvar=0.9501029489337246 Phases=2

New Load.load_p1rlv3478 conn=wye bus1=p1rlv3478.1.2 kV=0.2080002494301389 Vminpu=0.8 Vmaxpu=1.2 model=1 kW=1.40001 kvar=0.4601610340914602 Phases=2

New Load.load_p1rlv3479 conn=wye bus1=p1rlv3479.1.2 kV=0.2080002494301389 Vminpu=0.8 Vmaxpu=1.2 model=1 kW=5.74006 kvar=1.890737153940089 Phases=2

New Load.load_p1rlv3487 conn=wye bus1=p1rlv3487.1.2 kV=0.2080002494301389 Vminpu=0.8 Vmaxpu=1.2 model=1 kW=7.34007 kvar=1.4904647831598359 Phases=2

New Load.load_p1rlv3488 conn=wye bus1=p1rlv3488.1.2 kV=0.2080002494301389 Vminpu=0.8 Vmaxpu=1.2 model=1 kW=8.03008 kvar=1.630577289583905 Phases=2

New Load.load_p1rlv3489 conn=wye bus1=p1rlv3489.1.2 kV=0.2080002494301389 Vminpu=0.8 Vmaxpu=1.2 model=1 kW=5.23005 kvar=1.059267265977166 Phases=2

New Load.load_p1rlv3491 conn=wye bus1=p1rlv3491.1.2 kV=0.2080002494301389 Vminpu=0.8 Vmaxpu=1.2 model=1 kW=5.72006 kvar=1.1585113559957074 Phases=2

New Load.load_p1rlv3500 conn=wye bus1=p1rlv3500.1.2 kV=0.2080002494301389 Vminpu=0.8 Vmaxpu=1.2 model=1 kW=4.38004 kvar=0.8894050559233643 Phases=2

New Load.load_p1rlv3501 conn=wye bus1=p1rlv3501.1.2 kV=0.2080002494301389 Vminpu=0.8 Vmaxpu=1.2 model=1 kW=6.88007 kvar=1.4006536449105385 Phases=2

New Load.load_p1rlv3624 conn=wye bus1=p1rlv3624.1.2 kV=0.2080002494301389 Vminpu=0.8 Vmaxpu=1.2 model=1 kW=5.23005 kvar=1.720889503775713 Phases=2

New Load.load_p1rlv3625 conn=wye bus1=p1rlv3625.1.2 kV=0.2080002494301389 Vminpu=0.8 Vmaxpu=1.2 model=1 kW=10.5201 kvar=3.461521337017978 Phases=2

New Load.load_p1rlv3638 conn=wye bus1=p1rlv3638.1.2 kV=0.2080002494301389 Vminpu=0.8 Vmaxpu=1.2 model=1 kW=8.42008 kvar=1.709770167231167 Phases=2

New Load.load_p1rlv3650 conn=wye bus1=p1rlv3650.1.2 kV=0.2080002494301389 Vminpu=0.8 Vmaxpu=1.2 model=1 kW=4.05004 kvar=0.8202741461167985 Phases=2

New Load.load_p1rlv3651 conn=wye bus1=p1rlv3651.1.2 kV=0.2080002494301389 Vminpu=0.8 Vmaxpu=1.2 model=1 kW=6.12006 kvar=1.239525286338795 Phases=2

New Load.load_p1rlv3768 conn=wye bus1=p1rlv3768.1.2 kV=0.2080002494301389 Vminpu=0.8 Vmaxpu=1.2 model=1 kW=0.870009 kvar=0.28995194066354263 Phases=2

New Load.load_p1rlv3777 conn=wye bus1=p1rlv3777.1.2 kV=0.2080002494301389 Vminpu=0.8 Vmaxpu=1.2 model=1 kW=5.48005 kvar=1.109900972441596 Phases=2

New Load.load_p1rlv3779 conn=wye bus1=p1rlv3779.1.2 kV=0.2080002494301389 Vminpu=0.8 Vmaxpu=1.2 model=1 kW=6.66007 kvar=1.348896117650222 Phases=2

New Load.load_p1rlv3780 conn=wye bus1=p1rlv3780.1.2 kV=0.2080002494301389 Vminpu=0.8 Vmaxpu=1.2 model=1 kW=5.96006 kvar=1.2102418008983036 Phases=2

New Load.load_p1rlv3788 conn=wye bus1=p1rlv3788.1.2 kV=0.2080002494301389 Vminpu=0.8 Vmaxpu=1.2 model=1 kW=5.57006 kvar=1.131048923251042 Phases=2

New Load.load_p1rlv3880 conn=wye bus1=p1rlv3880.1.2 kV=0.2080002494301389 Vminpu=0.8 Vmaxpu=1.2 model=1 kW=5.75006 kvar=1.1706047318492825 Phases=2

New Load.load_p1rlv3881 conn=wye bus1=p1rlv3881.1.2 kV=0.2080002494301389 Vminpu=0.8 Vmaxpu=1.2 model=1 kW=4.78005 kvar=0.9706305507635722 Phases=2

New Load.load_p1rlv3882 conn=wye bus1=p1rlv3882.1.2 kV=0.2080002494301389 Vminpu=0.8 Vmaxpu=1.2 model=1 kW=5.76006 kvar=1.1696300687715029 Phases=2

New Load.load_p1rlv3883 conn=wye bus1=p1rlv3883.1.2 kV=0.2080002494301389 Vminpu=0.8 Vmaxpu=1.2 model=1 kW=5.600060000000001 kvar=1.1400675357543906 Phases=2

New Load.load_p1rlv3884 conn=wye bus1=p1rlv3884.1.2 kV=0.2080002494301389 Vminpu=0.8 Vmaxpu=1.2 model=1 kW=6.72007 kvar=1.3610482072016854 Phases=2

New Load.load_p1rlv3889 conn=wye bus1=p1rlv3889.1.2 kV=0.2080002494301389 Vminpu=0.8 Vmaxpu=1.2 model=1 kW=4.17004 kvar=0.8489421946902781 Phases=2

New Load.load_p1rlv4014 conn=wye bus1=p1rlv4014.1.2 kV=0.2080002494301389 Vminpu=0.8 Vmaxpu=1.2 model=1 kW=3.41003 kvar=0.6906498322195993 Phases=2

New Load.load_p1rlv4015 conn=wye bus1=p1rlv4015.1.2 kV=0.2080002494301389 Vminpu=0.8 Vmaxpu=1.2 model=1 kW=3.47003 kvar=1.1405437054938103 Phases=2

New Load.load_p1rlv4024 conn=wye bus1=p1rlv4024.1.2 kV=0.2080002494301389 Vminpu=0.8 Vmaxpu=1.2 model=1 kW=6.38006 kvar=1.298860955447827 Phases=2

New Load.load_p1rlv4146 conn=wye bus1=p1rlv4146.1.2 kV=0.2080002494301389 Vminpu=0.8 Vmaxpu=1.2 model=1 kW=5.25005 kvar=1.0688120423865706 Phases=2

New Load.load_p1rlv4147 conn=wye bus1=p1rlv4147.1.2 kV=0.2080002494301389 Vminpu=0.8 Vmaxpu=1.2 model=1 kW=4.03004 kvar=1.3303217055628933 Phases=2

New Load.load_p1rlv4148 conn=wye bus1=p1rlv4148.1.2 kV=0.2080002494301389 Vminpu=0.8 Vmaxpu=1.2 model=1 kW=2.44002 kvar=0.8002627597582593 Phases=2

New Load.load_p1rlv4165 conn=wye bus1=p1rlv4165.1.2 kV=0.2080002494301389 Vminpu=0.8 Vmaxpu=1.2 model=1 kW=5.82006 kvar=1.1787648385814788 Phases=2

New Load.load_p1rlv4166 conn=wye bus1=p1rlv4166.1.2 kV=0.2080002494301389 Vminpu=0.8 Vmaxpu=1.2 model=1 kW=5.67006 kvar=1.1513547893144422 Phases=2

New Load.load_p1rlv4167 conn=wye bus1=p1rlv4167.1.2 kV=0.2080002494301389 Vminpu=0.8 Vmaxpu=1.2 model=1 kW=4.4900400000000005 kvar=0.9093894694941951 Phases=2

New Load.load_p1rlv4280 conn=wye bus1=p1rlv4280.1.2 kV=0.2080002494301389 Vminpu=0.8 Vmaxpu=1.2 model=1 kW=0.580006 kvar=0.1900205897867449 Phases=2

New Load.load_p1rlv4281 conn=wye bus1=p1rlv4281.1.2 kV=0.2080002494301389 Vminpu=0.8 Vmaxpu=1.2 model=1 kW=6.65007 kvar=1.3503543073223732 Phases=2

New Load.load_p1rlv4282 conn=wye bus1=p1rlv4282.1.2 kV=0.2080002494301389 Vminpu=0.8 Vmaxpu=1.2 model=1 kW=3.48003 kvar=1.1401215730105654 Phases=2

New Load.load_p1rlv4283 conn=wye bus1=p1rlv4283.1.2 kV=0.2080002494301389 Vminpu=0.8 Vmaxpu=1.2 model=1 kW=3.49003 kvar=1.149592406589048 Phases=2

New Load.load_p1rlv4304 conn=wye bus1=p1rlv4304.1.2 kV=0.2080002494301389 Vminpu=0.8 Vmaxpu=1.2 model=1 kW=8.10008 kvar=1.6490248756287298 Phases=2

New Load.load_p1rlv4448 conn=wye bus1=p1rlv4448.1.2 kV=0.2080002494301389 Vminpu=0.8 Vmaxpu=1.2 model=1 kW=4.98005 kvar=1.011242282890373 Phases=2

New Load.load_p1rlv4449 conn=wye bus1=p1rlv4449.1.2 kV=0.2080002494301389 Vminpu=0.8 Vmaxpu=1.2 model=1 kW=0.500005 kvar=0.16004526738647784 Phases=2

New Load.load_p1rlv4459 conn=wye bus1=p1rlv4459.1.2 kV=0.2080002494301389 Vminpu=0.8 Vmaxpu=1.2 model=1 kW=4.34004 kvar=0.8790092456155372 Phases=2

New Load.load_p1rlv4462 conn=wye bus1=p1rlv4462.1.2 kV=0.2080002494301389 Vminpu=0.8 Vmaxpu=1.2 model=1 kW=4.93005 kvar=1.0010893498586726 Phases=2

New Load.load_p1rlv4463 conn=wye bus1=p1rlv4463.1.2 kV=0.2080002494301389 Vminpu=0.8 Vmaxpu=1.2 model=1 kW=2.20002 kvar=0.7199840635701102 Phases=2

New Load.load_p1rlv4574 conn=wye bus1=p1rlv4574.1.2 kV=0.2080002494301389 Vminpu=0.8 Vmaxpu=1.2 model=1 kW=7.43007 kvar=1.5087400626168963 Phases=2

New Load.load_p1rlv4575 conn=wye bus1=p1rlv4575.1.2 kV=0.2080002494301389 Vminpu=0.8 Vmaxpu=1.2 model=1 kW=4.93005 kvar=1.0010893498586726 Phases=2

New Load.load_p1rlv4576 conn=wye bus1=p1rlv4576.1.2 kV=0.2080002494301389 Vminpu=0.8 Vmaxpu=1.2 model=1 kW=3.85004 kvar=1.2695408858981965 Phases=2

New Load.load_p1rlv4580 conn=wye bus1=p1rlv4580.1.2 kV=0.2080002494301389 Vminpu=0.8 Vmaxpu=1.2 model=1 kW=5.44005 kvar=1.0989433780109366 Phases=2

New Load.load_p1rlv4581 conn=wye bus1=p1rlv4581.1.2 kV=0.2080002494301389 Vminpu=0.8 Vmaxpu=1.2 model=1 kW=6.23006 kvar=1.2585331351018492 Phases=2

New Load.load_p1rlv4582 conn=wye bus1=p1rlv4582.1.2 kV=0.2080002494301389 Vminpu=0.8 Vmaxpu=1.2 model=1 kW=4.87005 kvar=0.9889058302206326 Phases=2

New Load.load_p1rlv4583 conn=wye bus1=p1rlv4583.1.2 kV=0.2080002494301389 Vminpu=0.8 Vmaxpu=1.2 model=1 kW=12.2201 kvar=2.481397138813596 Phases=2

New Load.load_p1rlv4599 conn=wye bus1=p1rlv4599.1.2 kV=0.2080002494301389 Vminpu=0.8 Vmaxpu=1.2 model=1 kW=10.840100000000001 kvar=2.2011761871386697 Phases=2

New Load.load_p1rlv4600 conn=wye bus1=p1rlv4600.1.2 kV=0.2080002494301389 Vminpu=0.8 Vmaxpu=1.2 model=1 kW=6.00006 kvar=1.2215000586741016 Phases=2

New Load.load_p1rlv4718 conn=wye bus1=p1rlv4718.1.2 kV=0.2080002494301389 Vminpu=0.8 Vmaxpu=1.2 model=1 kW=6.56007 kvar=1.3286426350644502 Phases=2

New Load.load_p1rlv4719 conn=wye bus1=p1rlv4719.1.2.3 kV=0.48 Vminpu=0.8 Vmaxpu=1.2 model=1 kW=39.8004 kvar=8.081815916697623 Phases=3

New Load.load_p1rlv4720 conn=wye bus1=p1rlv4720.1.2 kV=0.2080002494301389 Vminpu=0.8 Vmaxpu=1.2 model=1 kW=4.11004 kvar=1.3494457952607295 Phases=2

New Load.load_p1rlv4721 conn=wye bus1=p1rlv4721.1.2 kV=0.2080002494301389 Vminpu=0.8 Vmaxpu=1.2 model=1 kW=5.95006 kvar=1.959909741391687 Phases=2

New Load.load_p1rlv4722 conn=wye bus1=p1rlv4722.1.2 kV=0.2080002494301389 Vminpu=0.8 Vmaxpu=1.2 model=1 kW=1.86002 kvar=0.6100379252651853 Phases=2

New Load.load_p1rlv4744 conn=wye bus1=p1rlv4744.1.2 kV=0.2080002494301389 Vminpu=0.8 Vmaxpu=1.2 model=1 kW=3.2600300000000004 kvar=1.0703627643341271 Phases=2

New Load.load_p1rlv4868 conn=wye bus1=p1rlv4868.1.2 kV=0.2080002494301389 Vminpu=0.8 Vmaxpu=1.2 model=1 kW=0.440004 kvar=0.1500168704752404 Phases=2

New Load.load_p1rlv4869 conn=wye bus1=p1rlv4869.1.2 kV=0.2080002494301389 Vminpu=0.8 Vmaxpu=1.2 model=1 kW=5.850060000000001 kvar=1.19096286257921 Phases=2

New Load.load_p1rlv4870 conn=wye bus1=p1rlv4870.1.2 kV=0.2080002494301389 Vminpu=0.8 Vmaxpu=1.2 model=1 kW=1.56002 kvar=0.5099805603374024 Phases=2

New Load.load_p1rlv4879 conn=wye bus1=p1rlv4879.1.2 kV=0.2080002494301389 Vminpu=0.8 Vmaxpu=1.2 model=1 kW=10.7201 kvar=2.182411972378982 Phases=2

New Load.load_p1rlv4880 conn=wye bus1=p1rlv4880.1.2 kV=0.2080002494301389 Vminpu=0.8 Vmaxpu=1.2 model=1 kW=1.08001 kvar=0.3599399493982622 Phases=2

New Load.load_p1rlv4881 conn=wye bus1=p1rlv4881.1.2 kV=0.2080002494301389 Vminpu=0.8 Vmaxpu=1.2 model=1 kW=4.82005 kvar=0.9787528971889325 Phases=2

New Load.load_p1rlv4882 conn=wye bus1=p1rlv4882.1.2 kV=0.2080002494301389 Vminpu=0.8 Vmaxpu=1.2 model=1 kW=6.570070000000001 kvar=1.3306679833230275 Phases=2

New Load.load_p1rlv5008 conn=wye bus1=p1rlv5008.1.2 kV=0.2080002494301389 Vminpu=0.8 Vmaxpu=1.2 model=1 kW=4.78005 kvar=0.9706305507635722 Phases=2

New Load.load_p1rlv5011 conn=wye bus1=p1rlv5011.1.2 kV=0.2080002494301389 Vminpu=0.8 Vmaxpu=1.2 model=1 kW=0.370004 kvar=0.12003154111794118 Phases=2

New Load.load_p1rlv5012 conn=wye bus1=p1rlv5012.1.2 kV=0.2080002494301389 Vminpu=0.8 Vmaxpu=1.2 model=1 kW=1.65002 kvar=0.5399896839901244 Phases=2
