Clear

New Circuit.substation_p2uhs10_69 bus1=p2uhs10_69 pu=1.0 basekV=69.0 R1=1e-05 X1=1e-05 R0=1e-05 X0=1e-05

Redirect Transformers.dss
Redirect p2uhs10_1247--p2udt8615/Transformers.dss
Redirect p2uhs10_1247--p2udt3516/Transformers.dss
Redirect p2uhs10_1247--p2udt7514/Transformers.dss
Redirect p2uhs10_1247--p2udt8564/Transformers.dss
Redirect p2uhs10_1247--p2udt7118/Transformers.dss
Redirect p2uhs10_1247--p2udt7412/Transformers.dss
Redirect Regulators.dss
Redirect p2uhs10_1247--p2udt8615/Loads.dss
Redirect p2uhs10_1247--p2udt3516/Loads.dss
Redirect p2uhs10_1247--p2udt7514/Loads.dss
Redirect p2uhs10_1247--p2udt8564/Loads.dss
Redirect p2uhs10_1247--p2udt7118/Loads.dss
Redirect p2uhs10_1247--p2udt7412/Loads.dss
Redirect LineCodes.dss
Redirect p2uhs10_1247--p2udt8615/LineCodes.dss
Redirect p2uhs10_1247--p2udt3516/LineCodes.dss
Redirect p2uhs10_1247--p2udt7514/LineCodes.dss
Redirect p2uhs10_1247--p2udt8564/LineCodes.dss
Redirect p2uhs10_1247--p2udt7118/LineCodes.dss
Redirect p2uhs10_1247--p2udt7412/LineCodes.dss
Redirect Lines.dss
Redirect p2uhs10_1247--p2udt8615/Lines.dss
Redirect p2uhs10_1247--p2udt3516/Lines.dss
Redirect p2uhs10_1247--p2udt7514/Lines.dss
Redirect p2uhs10_1247--p2udt8564/Lines.dss
Redirect p2uhs10_1247--p2udt7118/Lines.dss
Redirect p2uhs10_1247--p2udt7412/Lines.dss
Redirect p2uhs10_1247--p2udt7514/Capacitors.dss
Redirect p2uhs10_1247--p2udt7412/Capacitors.dss
Redirect p2uhs10_1247--p2udt8615/Capacitors.dss
Redirect p2uhs10_1247--p2udt8564/Capacitors.dss

Set Voltagebases=[0.2080002494301389, 0.48, 7.199560000000001, 12.47, 69.0]

Calcvoltagebases

Buscoords Buscoords.dss

Solve