New Line.l(r:p1rdt55lv-p1rlv56) Units=km Length=0.0651704 bus1=p1rdt55lv.1.2 bus2=p1rlv56.1.2 switch=n enabled=y phases=2 Linecode=1P_OH_AL_4/0_Zuzara_0_416_0_2_2_2_2_2_2_2_2_2_2_2_2_2_2_2_2_2_2_2_2_2_2_2_2_2_2_2_2_2

New Line.l(r:p1rdt55lv-p1rlv733) Units=km Length=0.0188387 bus1=p1rdt55lv.1.2 bus2=p1rlv733.1.2 switch=n enabled=y phases=2 Linecode=1P_OH_AL_2/0_Rucina_0_416_0_2_2_2_2_2_2_2_2_2_2_2_2_2_2_2_2_2_2_2_2_2_2_2_2_2_2_2_2_2

New Line.l(r:p1rdt179lv-p1rlv7551) Units=km Length=0.07642170000000001 bus1=p1rdt179lv.1.2 bus2=p1rlv7551.1.2 switch=n enabled=y phases=2 Linecode=1P_OH_AL_4/0_Zuzara_0_416_0_2_2_2_2_2_2_2_2_2_2_2_2_2_2_2_2_2_2_2_2_2_2_2_2_2_2_2_2_2

New Line.l(r:p1rdt179lv-p1rlv9954) Units=km Length=0.0363773 bus1=p1rdt179lv.1.2 bus2=p1rlv9954.1.2 switch=n enabled=y phases=2 Linecode=1P_OH_AL_4/0_Zuzara_0_416_0_2_2_2_2_2_2_2_2_2_2_2_2_2_2_2_2_2_2_2_2_2_2_2_2_2_2_2_2_2

New Line.l(r:p1rdm429-p1rlv3383) Units=km Length=0.10185 bus1=p1rdm429.1.2 bus2=p1rlv3383.1.2 switch=n enabled=y phases=2 Linecode=1P_OH_AL_4/0_Zuzara_0_416_0_2_2_2_2_2_2_2_2_2_2_2_2_2_2_2_2_2_2_2_2_2_2_2_2_2_2_2_2_2

New Line.l(r:p1rdm428-p1rlv185) Units=km Length=0.0787028 bus1=p1rdm428.1.2 bus2=p1rlv185.1.2 switch=n enabled=y phases=2 Linecode=1P_OH_AL_4/0_Zuzara_0_416_0_2_2_2_2_2_2_2_2_2_2_2_2_2_2_2_2_2_2_2_2_2_2_2_2_2_2_2_2_2

New Line.l(r:p1rdm428-p1rdm429) Units=km Length=0.017070800000000004 bus1=p1rdm429.1.2 bus2=p1rdm428.1.2 switch=n enabled=y phases=2 Linecode=1P_OH_AL_2/0_Rucina_0_416_0_2_2_2_2_2_2_2_2_2_2_2_2_2_2_2_2_2_2_2_2_2_2_2_2_2_2_2_2_2

New Line.l(r:p1rdm429-p1rdt179lv) Units=km Length=0.01708 bus1=p1rdt179lv.1.2 bus2=p1rdm429.1.2 switch=n enabled=y phases=2 Linecode=1P_OH_AL_2/0_Rucina_0_416_0_2_2_2_2_2_2_2_2_2_2_2_2_2_2_2_2_2_2_2_2_2_2_2_2_2_2_2_2_2

New Line.l(r:p1rdm432-p1rlv12656) Units=km Length=0.0780027 bus1=p1rdm432.1.2 bus2=p1rlv12656.1.2 switch=n enabled=y phases=2 Linecode=1P_OH_AL_4/0_Zuzara_0_416_0_2_2_2_2_2_2_2_2_2_2_2_2_2_2_2_2_2_2_2_2_2_2_2_2_2_2_2_2_2

New Line.l(r:p1rdm432-p1rdt179lv) Units=km Length=0.0181215 bus1=p1rdt179lv.1.2 bus2=p1rdm432.1.2 switch=n enabled=y phases=2 Linecode=1P_OH_AL_2/0_Rucina_0_416_0_2_2_2_2_2_2_2_2_2_2_2_2_2_2_2_2_2_2_2_2_2_2_2_2_2_2_2_2_2

New Line.l(r:p1rdm445-p1rlv191) Units=km Length=0.0346514 bus1=p1rdm445.1.2 bus2=p1rlv191.1.2 switch=n enabled=y phases=2 Linecode=1P_OH_AL_4/0_Zuzara_0_416_0_2_2_2_2_2_2_2_2_2_2_2_2_2_2_2_2_2_2_2_2_2_2_2_2_2_2_2_2_2

New Line.l(r:p1rdm445-p1rdt184lv) Units=km Length=0.0399847 bus1=p1rdt184lv.1.2 bus2=p1rdm445.1.2 switch=n enabled=y phases=2 Linecode=1P_OH_AL_4/0_Zuzara_0_416_0_2_2_2_2_2_2_2_2_2_2_2_2_2_2_2_2_2_2_2_2_2_2_2_2_2_2_2_2_2

New Line.l(r:p1rdm446-p1rlv5444) Units=km Length=0.022710400000000002 bus1=p1rdm446.1.2 bus2=p1rlv5444.1.2 switch=n enabled=y phases=2 Linecode=1P_OH_AL_2/0_Rucina_0_416_0_2_2_2_2_2_2_2_2_2_2_2_2_2_2_2_2_2_2_2_2_2_2_2_2_2_2_2_2_2

New Line.l(r:p1rdm446-p1rdt184lv) Units=km Length=0.0399889 bus1=p1rdt184lv.1.2 bus2=p1rdm446.1.2 switch=n enabled=y phases=2 Linecode=1P_OH_AL_4/0_Zuzara_0_416_0_2_2_2_2_2_2_2_2_2_2_2_2_2_2_2_2_2_2_2_2_2_2_2_2_2_2_2_2_2

New Line.l(r:p1rdt316lv-p1rlv325) Units=km Length=0.0419538 bus1=p1rdt316lv.1.2 bus2=p1rlv325.1.2 switch=n enabled=y phases=2 Linecode=1P_OH_AL_4/0_Zuzara_0_416_0_2_2_2_2_2_2_2_2_2_2_2_2_2_2_2_2_2_2_2_2_2_2_2_2_2_2_2_2_2

New Line.l(r:p1rdt316lv-p1rlv7121) Units=km Length=0.057935400000000005 bus1=p1rdt316lv.1.2 bus2=p1rlv7121.1.2 switch=n enabled=y phases=2 Linecode=1P_OH_AL_4/0_Zuzara_0_416_0_2_2_2_2_2_2_2_2_2_2_2_2_2_2_2_2_2_2_2_2_2_2_2_2_2_2_2_2_2

New Line.l(r:p1rdt321lv-p1rlv330) Units=km Length=0.001 bus1=p1rdt321lv.1.2 bus2=p1rlv330.1.2 switch=n enabled=y phases=2 Linecode=1P_OH_AL_4_Periwinkle_0_416_0_2_2_2_2_2_2_2_2_2_2_2_2_2_2_2_2_2_2_2_2_2_2_2_2_2_2_2_2_2

New Line.l(r:p1rdm762-p1rlv331) Units=km Length=0.035715 bus1=p1rdm762.1.2 bus2=p1rlv331.1.2 switch=n enabled=y phases=2 Linecode=1P_OH_AL_4/0_Zuzara_0_416_0_2_2_2_2_2_2_2_2_2_2_2_2_2_2_2_2_2_2_2_2_2_2_2_2_2_2_2_2_2

New Line.l(r:p1rdm762-p1rdt322lv) Units=km Length=0.0196759 bus1=p1rdt322lv.1.2 bus2=p1rdm762.1.2 switch=n enabled=y phases=2 Linecode=1P_OH_AL_2/0_Rucina_0_416_0_2_2_2_2_2_2_2_2_2_2_2_2_2_2_2_2_2_2_2_2_2_2_2_2_2_2_2_2_2

New Line.l(r:p1rdm763-p1rlv10753) Units=km Length=0.0206414 bus1=p1rdm763.1.2 bus2=p1rlv10753.1.2 switch=n enabled=y phases=2 Linecode=1P_OH_AL_2/0_Rucina_0_416_0_2_2_2_2_2_2_2_2_2_2_2_2_2_2_2_2_2_2_2_2_2_2_2_2_2_2_2_2_2

New Line.l(r:p1rdm763-p1rdt322lv) Units=km Length=0.019667100000000003 bus1=p1rdt322lv.1.2 bus2=p1rdm763.1.2 switch=n enabled=y phases=2 Linecode=1P_OH_AL_2/0_Rucina_0_416_0_2_2_2_2_2_2_2_2_2_2_2_2_2_2_2_2_2_2_2_2_2_2_2_2_2_2_2_2_2

New Line.l(r:p1rdt440lv-p1rlv450) Units=km Length=0.0113696 bus1=p1rdt440lv.1.2 bus2=p1rlv450.1.2 switch=n enabled=y phases=2 Linecode=1P_OH_AL_2/0_Rucina_0_416_0_2_2_2_2_2_2_2_2_2_2_2_2_2_2_2_2_2_2_2_2_2_2_2_2_2_2_2_2_2

New Line.l(r:p1rdt440lv-p1rlv9383) Units=km Length=0.0113696 bus1=p1rdt440lv.1.2 bus2=p1rlv9383.1.2 switch=n enabled=y phases=2 Linecode=1P_OH_AL_2/0_Rucina_0_416_0_2_2_2_2_2_2_2_2_2_2_2_2_2_2_2_2_2_2_2_2_2_2_2_2_2_2_2_2_2

New Line.l(r:p1rdt562lv-p1rlv576) Units=km Length=0.0345669 bus1=p1rdt562lv.1.2 bus2=p1rlv576.1.2 switch=n enabled=y phases=2 Linecode=1P_UG_AL_1/0_Brenau_0_416_0_2_2_2_2_2_2_2_2_2_2_2_2_2_2_2_2_2_2_2_2_2_2_2_2_2_2_2_2_2

New Line.l(r:p1rdt562lv-p1rlv10598) Units=km Length=0.032724600000000006 bus1=p1rdt562lv.1.2 bus2=p1rlv10598.1.2 switch=n enabled=y phases=2 Linecode=1P_UG_AL_1/0_Brenau_0_416_0_2_2_2_2_2_2_2_2_2_2_2_2_2_2_2_2_2_2_2_2_2_2_2_2_2_2_2_2_2

New Line.l(r:p1rdt562lv-p1rlv13563) Units=km Length=0.0132886 bus1=p1rdt562lv.1.2 bus2=p1rlv13563.1.2 switch=n enabled=y phases=2 Linecode=1P_UG_AL_1/0_Brenau_0_416_0_2_2_2_2_2_2_2_2_2_2_2_2_2_2_2_2_2_2_2_2_2_2_2_2_2_2_2_2_2

New Line.l(r:p1rdt563lv-p1rlv577) Units=km Length=0.0431925 bus1=p1rdt563lv.1.2 bus2=p1rlv577.1.2 switch=n enabled=y phases=2 Linecode=1P_OH_AL_4/0_Zuzara_0_416_0_2_2_2_2_2_2_2_2_2_2_2_2_2_2_2_2_2_2_2_2_2_2_2_2_2_2_2_2_2

New Line.l(r:p1rdt563lv-p1rlv4636) Units=km Length=0.060241 bus1=p1rdt563lv.1.2 bus2=p1rlv4636.1.2 switch=n enabled=y phases=2 Linecode=1P_OH_AL_4/0_Zuzara_0_416_0_2_2_2_2_2_2_2_2_2_2_2_2_2_2_2_2_2_2_2_2_2_2_2_2_2_2_2_2_2

New Line.l(r:p1rdt563lv-p1rlv4637) Units=km Length=0.0200615 bus1=p1rdt563lv.1.2 bus2=p1rlv4637.1.2 switch=n enabled=y phases=2 Linecode=1P_OH_AL_2/0_Rucina_0_416_0_2_2_2_2_2_2_2_2_2_2_2_2_2_2_2_2_2_2_2_2_2_2_2_2_2_2_2_2_2

New Line.l(r:p1rdt563lv-p1rlv13051) Units=km Length=0.024904 bus1=p1rdt563lv.1.2 bus2=p1rlv13051.1.2 switch=n enabled=y phases=2 Linecode=1P_OH_AL_2/0_Rucina_0_416_0_2_2_2_2_2_2_2_2_2_2_2_2_2_2_2_2_2_2_2_2_2_2_2_2_2_2_2_2_2

New Line.l(r:p1rdt564lv-p1rlv578) Units=km Length=0.0465698 bus1=p1rdt564lv.1.2 bus2=p1rlv578.1.2 switch=n enabled=y phases=2 Linecode=1P_OH_AL_4/0_Zuzara_0_416_0_2_2_2_2_2_2_2_2_2_2_2_2_2_2_2_2_2_2_2_2_2_2_2_2_2_2_2_2_2

New Line.l(r:p1rdt564lv-p1rlv3814) Units=km Length=0.0375581 bus1=p1rdt564lv.1.2 bus2=p1rlv3814.1.2 switch=n enabled=y phases=2 Linecode=1P_OH_AL_4/0_Zuzara_0_416_0_2_2_2_2_2_2_2_2_2_2_2_2_2_2_2_2_2_2_2_2_2_2_2_2_2_2_2_2_2

New Line.l(r:p1rdt564lv-p1rlv7126) Units=km Length=0.0308868 bus1=p1rdt564lv.1.2 bus2=p1rlv7126.1.2 switch=n enabled=y phases=2 Linecode=1P_OH_AL_4/0_Zuzara_0_416_0_2_2_2_2_2_2_2_2_2_2_2_2_2_2_2_2_2_2_2_2_2_2_2_2_2_2_2_2_2

New Line.l(r:p1rdt564lv-p1rlv9516) Units=km Length=0.0859897 bus1=p1rdt564lv.1.2 bus2=p1rlv9516.1.2 switch=n enabled=y phases=2 Linecode=1P_OH_AL_4/0_Zuzara_0_416_0_2_2_2_2_2_2_2_2_2_2_2_2_2_2_2_2_2_2_2_2_2_2_2_2_2_2_2_2_2

New Line.l(r:p1rdt570lv-p1rlv584) Units=km Length=0.0486835 bus1=p1rdt570lv.1.2 bus2=p1rlv584.1.2 switch=n enabled=y phases=2 Linecode=1P_OH_AL_4/0_Zuzara_0_416_0_2_2_2_2_2_2_2_2_2_2_2_2_2_2_2_2_2_2_2_2_2_2_2_2_2_2_2_2_2

New Line.l(r:p1rdt570lv-p1rlv13057) Units=km Length=0.05276920000000001 bus1=p1rdt570lv.1.2 bus2=p1rlv13057.1.2 switch=n enabled=y phases=2 Linecode=1P_OH_AL_4/0_Zuzara_0_416_0_2_2_2_2_2_2_2_2_2_2_2_2_2_2_2_2_2_2_2_2_2_2_2_2_2_2_2_2_2

New Line.l(r:p1rdt570lv-p1rlv13699) Units=km Length=0.0924727 bus1=p1rdt570lv.1.2 bus2=p1rlv13699.1.2 switch=n enabled=y phases=2 Linecode=1P_OH_AL_4/0_Zuzara_0_416_0_2_2_2_2_2_2_2_2_2_2_2_2_2_2_2_2_2_2_2_2_2_2_2_2_2_2_2_2_2

New Line.l(r:p1rdt688lv-p1rlv718) Units=km Length=0.0439579 bus1=p1rdt688lv.1.2 bus2=p1rlv718.1.2 switch=n enabled=y phases=2 Linecode=1P_OH_AL_4/0_Zuzara_0_416_0_2_2_2_2_2_2_2_2_2_2_2_2_2_2_2_2_2_2_2_2_2_2_2_2_2_2_2_2_2

New Line.l(r:p1rdt692lv-p1rlv722) Units=km Length=0.0918387 bus1=p1rdt692lv.1.2 bus2=p1rlv722.1.2 switch=n enabled=y phases=2 Linecode=1P_OH_AL_4/0_Zuzara_0_416_0_2_2_2_2_2_2_2_2_2_2_2_2_2_2_2_2_2_2_2_2_2_2_2_2_2_2_2_2_2

New Line.l(r:p1rdt692lv-p1rlv12538) Units=km Length=0.0605446 bus1=p1rdt692lv.1.2 bus2=p1rlv12538.1.2 switch=n enabled=y phases=2 Linecode=1P_OH_AL_4/0_Zuzara_0_416_0_2_2_2_2_2_2_2_2_2_2_2_2_2_2_2_2_2_2_2_2_2_2_2_2_2_2_2_2_2

New Line.l(r:p1rdm1594-p1rlv7686) Units=km Length=0.03426300000000001 bus1=p1rdm1594.1.2 bus2=p1rlv7686.1.2 switch=n enabled=y phases=2 Linecode=1P_OH_AL_4/0_Zuzara_0_416_0_2_2_2_2_2_2_2_2_2_2_2_2_2_2_2_2_2_2_2_2_2_2_2_2_2_2_2_2_2

New Line.l(r:p1rdm1594-p1rdt692lv) Units=km Length=0.0196488 bus1=p1rdt692lv.1.2 bus2=p1rdm1594.1.2 switch=n enabled=y phases=2 Linecode=1P_OH_AL_2/0_Rucina_0_416_0_2_2_2_2_2_2_2_2_2_2_2_2_2_2_2_2_2_2_2_2_2_2_2_2_2_2_2_2_2

New Line.l(r:p1rdt703lv-p1rlv734) Units=km Length=0.054413 bus1=p1rdt703lv.1.2 bus2=p1rlv734.1.2 switch=n enabled=y phases=2 Linecode=1P_OH_AL_4/0_Zuzara_0_416_0_2_2_2_2_2_2_2_2_2_2_2_2_2_2_2_2_2_2_2_2_2_2_2_2_2_2_2_2_2

New Line.l(r:p1rdt825lv-p1rlv862) Units=km Length=0.040039000000000005 bus1=p1rdt825lv.1.2 bus2=p1rlv862.1.2 switch=n enabled=y phases=2 Linecode=1P_OH_AL_4/0_Zuzara_0_416_0_2_2_2_2_2_2_2_2_2_2_2_2_2_2_2_2_2_2_2_2_2_2_2_2_2_2_2_2_2

New Line.l(r:p1rdt825lv-p1rlv1928) Units=km Length=0.0715524 bus1=p1rdt825lv.1.2 bus2=p1rlv1928.1.2 switch=n enabled=y phases=2 Linecode=1P_OH_AL_4/0_Zuzara_0_416_0_2_2_2_2_2_2_2_2_2_2_2_2_2_2_2_2_2_2_2_2_2_2_2_2_2_2_2_2_2

New Line.l(r:p1rdt825lv-p1rlv12264) Units=km Length=0.09342560000000001 bus1=p1rdt825lv.1.2 bus2=p1rlv12264.1.2 switch=n enabled=y phases=2 Linecode=1P_OH_AL_4/0_Zuzara_0_416_0_2_2_2_2_2_2_2_2_2_2_2_2_2_2_2_2_2_2_2_2_2_2_2_2_2_2_2_2_2

New Line.l(r:p1rdt827lv-p1rlv864) Units=km Length=0.029136 bus1=p1rdt827lv.1.2 bus2=p1rlv864.1.2 switch=n enabled=y phases=2 Linecode=1P_OH_AL_4/0_Zuzara_0_416_0_2_2_2_2_2_2_2_2_2_2_2_2_2_2_2_2_2_2_2_2_2_2_2_2_2_2_2_2_2

New Line.l(r:p1rdt827lv-p1rlv5434) Units=km Length=0.0154468 bus1=p1rdt827lv.1.2 bus2=p1rlv5434.1.2 switch=n enabled=y phases=2 Linecode=1P_OH_AL_2/0_Rucina_0_416_0_2_2_2_2_2_2_2_2_2_2_2_2_2_2_2_2_2_2_2_2_2_2_2_2_2_2_2_2_2

New Line.l(r:p1rdt827lv-p1rlv8733) Units=km Length=0.0202382 bus1=p1rdt827lv.1.2 bus2=p1rlv8733.1.2 switch=n enabled=y phases=2 Linecode=1P_OH_AL_2/0_Rucina_0_416_0_2_2_2_2_2_2_2_2_2_2_2_2_2_2_2_2_2_2_2_2_2_2_2_2_2_2_2_2_2

New Line.l(r:p1rdt828lv-p1rlv865) Units=km Length=0.027604600000000003 bus1=p1rdt828lv.1.2 bus2=p1rlv865.1.2 switch=n enabled=y phases=2 Linecode=1P_OH_AL_4/0_Zuzara_0_416_0_2_2_2_2_2_2_2_2_2_2_2_2_2_2_2_2_2_2_2_2_2_2_2_2_2_2_2_2_2

New Line.l(r:p1rdt828lv-p1rlv1658) Units=km Length=0.0301101 bus1=p1rdt828lv.1.2 bus2=p1rlv1658.1.2 switch=n enabled=y phases=2 Linecode=1P_OH_AL_4/0_Zuzara_0_416_0_2_2_2_2_2_2_2_2_2_2_2_2_2_2_2_2_2_2_2_2_2_2_2_2_2_2_2_2_2

New Line.l(r:p1rdt828lv-p1rlv13050) Units=km Length=0.00310577 bus1=p1rdt828lv.1.2 bus2=p1rlv13050.1.2 switch=n enabled=y phases=2 Linecode=1P_OH_AL_4_Periwinkle_0_416_0_2_2_2_2_2_2_2_2_2_2_2_2_2_2_2_2_2_2_2_2_2_2_2_2_2_2_2_2_2

New Line.l(r:p1rdm2177-p1rlv1011) Units=km Length=0.0848537 bus1=p1rdm2177.1.2 bus2=p1rlv1011.1.2 switch=n enabled=y phases=2 Linecode=1P_OH_AL_4/0_Zuzara_0_416_0_2_2_2_2_2_2_2_2_2_2_2_2_2_2_2_2_2_2_2_2_2_2_2_2_2_2_2_2_2

New Line.l(r:p1rdm2177-p1rdt961lv) Units=km Length=0.0181385 bus1=p1rdt961lv.1.2 bus2=p1rdm2177.1.2 switch=n enabled=y phases=2 Linecode=1P_OH_AL_2/0_Rucina_0_416_0_2_2_2_2_2_2_2_2_2_2_2_2_2_2_2_2_2_2_2_2_2_2_2_2_2_2_2_2_2

New Line.l(r:p1rdm2178-p1rlv2063) Units=km Length=0.0663593 bus1=p1rdm2178.1.2 bus2=p1rlv2063.1.2 switch=n enabled=y phases=2 Linecode=1P_OH_AL_4/0_Zuzara_0_416_0_2_2_2_2_2_2_2_2_2_2_2_2_2_2_2_2_2_2_2_2_2_2_2_2_2_2_2_2_2

New Line.l(r:p1rdm2178-p1rdt961lv) Units=km Length=0.0181338 bus1=p1rdt961lv.1.2 bus2=p1rdm2178.1.2 switch=n enabled=y phases=2 Linecode=1P_OH_AL_2/0_Rucina_0_416_0_2_2_2_2_2_2_2_2_2_2_2_2_2_2_2_2_2_2_2_2_2_2_2_2_2_2_2_2_2

New Line.l(r:p1rdt1066lv-p1rlv1128) Units=km Length=0.0221594 bus1=p1rdt1066lv.1.2 bus2=p1rlv1128.1.2 switch=n enabled=y phases=2 Linecode=1P_OH_AL_2/0_Rucina_0_416_0_2_2_2_2_2_2_2_2_2_2_2_2_2_2_2_2_2_2_2_2_2_2_2_2_2_2_2_2_2

New Line.l(r:p1rdt1066lv-p1rlv9796) Units=km Length=0.141061 bus1=p1rdt1066lv.1.2 bus2=p1rlv9796.1.2 switch=n enabled=y phases=2 Linecode=1P_OH_AL_4/0_Zuzara_0_416_0_2_2_2_2_2_2_2_2_2_2_2_2_2_2_2_2_2_2_2_2_2_2_2_2_2_2_2_2_2

New Line.l(r:p1rdt1076lv-p1rlv1138) Units=km Length=0.0489042 bus1=p1rdt1076lv.1.2 bus2=p1rlv1138.1.2 switch=n enabled=y phases=2 Linecode=1P_OH_AL_4/0_Zuzara_0_416_0_2_2_2_2_2_2_2_2_2_2_2_2_2_2_2_2_2_2_2_2_2_2_2_2_2_2_2_2_2

New Line.l(r:p1rdt1173lv-p1rlv1244) Units=km Length=0.001 bus1=p1rdt1173lv.1.2 bus2=p1rlv1244.1.2 switch=n enabled=y phases=2 Linecode=1P_OH_AL_4_Periwinkle_0_416_0_2_2_2_2_2_2_2_2_2_2_2_2_2_2_2_2_2_2_2_2_2_2_2_2_2_2_2_2_2

New Line.l(r:p1rdt1179lv-p1rlv1251) Units=km Length=0.001 bus1=p1rdt1179lv.1.2 bus2=p1rlv1251.1.2 switch=n enabled=y phases=2 Linecode=1P_OH_AL_4_Periwinkle_0_416_0_2_2_2_2_2_2_2_2_2_2_2_2_2_2_2_2_2_2_2_2_2_2_2_2_2_2_2_2_2

New Line.l(r:p1rdt1180lv-p1rlv1252) Units=km Length=0.018447 bus1=p1rdt1180lv.1.2 bus2=p1rlv1252.1.2 switch=n enabled=y phases=2 Linecode=1P_OH_AL_2/0_Rucina_0_416_0_2_2_2_2_2_2_2_2_2_2_2_2_2_2_2_2_2_2_2_2_2_2_2_2_2_2_2_2_2

New Line.l(r:p1rdt1180lv-p1rlv4780) Units=km Length=0.018447 bus1=p1rdt1180lv.1.2 bus2=p1rlv4780.1.2 switch=n enabled=y phases=2 Linecode=1P_OH_AL_2/0_Rucina_0_416_0_2_2_2_2_2_2_2_2_2_2_2_2_2_2_2_2_2_2_2_2_2_2_2_2_2_2_2_2_2

New Line.l(r:p1rdt1181lv-p1rlv1253) Units=km Length=0.001 bus1=p1rdt1181lv.1.2 bus2=p1rlv1253.1.2 switch=n enabled=y phases=2 Linecode=1P_OH_AL_4_Periwinkle_0_416_0_2_2_2_2_2_2_2_2_2_2_2_2_2_2_2_2_2_2_2_2_2_2_2_2_2_2_2_2_2

New Line.l(r:p1rdt1311lv-p1rlv1403) Units=km Length=0.001 bus1=p1rdt1311lv.1.2 bus2=p1rlv1403.1.2 switch=n enabled=y phases=2 Linecode=1P_OH_AL_4_Periwinkle_0_416_0_2_2_2_2_2_2_2_2_2_2_2_2_2_2_2_2_2_2_2_2_2_2_2_2_2_2_2_2_2

New Line.l(r:p1rdt1315lv-p1rlv1407) Units=km Length=0.0331769 bus1=p1rdt1315lv.1.2 bus2=p1rlv1407.1.2 switch=n enabled=y phases=2 Linecode=1P_OH_AL_4/0_Zuzara_0_416_0_2_2_2_2_2_2_2_2_2_2_2_2_2_2_2_2_2_2_2_2_2_2_2_2_2_2_2_2_2

New Line.l(r:p1rdt1315lv-p1rlv8577) Units=km Length=0.026626 bus1=p1rdt1315lv.1.2 bus2=p1rlv8577.1.2 switch=n enabled=y phases=2 Linecode=1P_OH_AL_2/0_Rucina_0_416_0_2_2_2_2_2_2_2_2_2_2_2_2_2_2_2_2_2_2_2_2_2_2_2_2_2_2_2_2_2

New Line.l(r:p1rdt1315lv-p1rlv8578) Units=km Length=0.0563623 bus1=p1rdt1315lv.1.2 bus2=p1rlv8578.1.2 switch=n enabled=y phases=2 Linecode=1P_OH_AL_4/0_Zuzara_0_416_0_2_2_2_2_2_2_2_2_2_2_2_2_2_2_2_2_2_2_2_2_2_2_2_2_2_2_2_2_2

New Line.l(r:p1rdt1316lv-p1rlv1408) Units=km Length=0.001 bus1=p1rdt1316lv.1.2 bus2=p1rlv1408.1.2 switch=n enabled=y phases=2 Linecode=1P_OH_AL_4_Periwinkle_0_416_0_2_2_2_2_2_2_2_2_2_2_2_2_2_2_2_2_2_2_2_2_2_2_2_2_2_2_2_2_2

New Line.l(r:p1rdt1324lv-p1rlv1420) Units=km Length=0.00877213 bus1=p1rdt1324lv.1.2 bus2=p1rlv1420.1.2 switch=n enabled=y phases=2 Linecode=1P_OH_AL_2/0_Rucina_0_416_0_2_2_2_2_2_2_2_2_2_2_2_2_2_2_2_2_2_2_2_2_2_2_2_2_2_2_2_2_2

New Line.l(r:p1rdt1324lv-p1rlv7134) Units=km Length=0.00877213 bus1=p1rdt1324lv.1.2 bus2=p1rlv7134.1.2 switch=n enabled=y phases=2 Linecode=1P_OH_AL_2/0_Rucina_0_416_0_2_2_2_2_2_2_2_2_2_2_2_2_2_2_2_2_2_2_2_2_2_2_2_2_2_2_2_2_2

New Line.l(r:p1rdt1325lv-p1rlv1421) Units=km Length=0.08628760000000002 bus1=p1rdt1325lv.1.2 bus2=p1rlv1421.1.2 switch=n enabled=y phases=2 Linecode=1P_OH_AL_4/0_Zuzara_0_416_0_2_2_2_2_2_2_2_2_2_2_2_2_2_2_2_2_2_2_2_2_2_2_2_2_2_2_2_2_2

New Line.l(r:p1rdt1435lv-p1rlv1540) Units=km Length=0.0337646 bus1=p1rdt1435lv.1.2 bus2=p1rlv1540.1.2 switch=n enabled=y phases=2 Linecode=1P_OH_AL_4/0_Zuzara_0_416_0_2_2_2_2_2_2_2_2_2_2_2_2_2_2_2_2_2_2_2_2_2_2_2_2_2_2_2_2_2

New Line.l(r:p1rdt1435lv-p1rlv7258) Units=km Length=0.017246 bus1=p1rdt1435lv.1.2 bus2=p1rlv7258.1.2 switch=n enabled=y phases=2 Linecode=1P_OH_AL_2/0_Rucina_0_416_0_2_2_2_2_2_2_2_2_2_2_2_2_2_2_2_2_2_2_2_2_2_2_2_2_2_2_2_2_2

New Line.l(r:p1rdt1435lv-p1rlv9382) Units=km Length=0.0348471 bus1=p1rdt1435lv.1.2 bus2=p1rlv9382.1.2 switch=n enabled=y phases=2 Linecode=1P_OH_AL_4/0_Zuzara_0_416_0_2_2_2_2_2_2_2_2_2_2_2_2_2_2_2_2_2_2_2_2_2_2_2_2_2_2_2_2_2

New Line.l(r:p1rdt1435lv-p1rlv10601) Units=km Length=0.0594453 bus1=p1rdt1435lv.1.2 bus2=p1rlv10601.1.2 switch=n enabled=y phases=2 Linecode=1P_OH_AL_4/0_Zuzara_0_416_0_2_2_2_2_2_2_2_2_2_2_2_2_2_2_2_2_2_2_2_2_2_2_2_2_2_2_2_2_2

New Line.l(r:p1rdt1441lv-p1rlv1548) Units=km Length=0.0582694 bus1=p1rdt1441lv.1.2 bus2=p1rlv1548.1.2 switch=n enabled=y phases=2 Linecode=1P_OH_AL_4/0_Zuzara_0_416_0_2_2_2_2_2_2_2_2_2_2_2_2_2_2_2_2_2_2_2_2_2_2_2_2_2_2_2_2_2

New Line.l(r:p1rdt1441lv-p1rlv8875) Units=km Length=0.0914824 bus1=p1rdt1441lv.1.2 bus2=p1rlv8875.1.2 switch=n enabled=y phases=2 Linecode=1P_OH_AL_4/0_Zuzara_0_416_0_2_2_2_2_2_2_2_2_2_2_2_2_2_2_2_2_2_2_2_2_2_2_2_2_2_2_2_2_2

New Line.l(r:p1rdt1529lv-p1rlv1657) Units=km Length=0.0998909 bus1=p1rdt1529lv.1.2 bus2=p1rlv1657.1.2 switch=n enabled=y phases=2 Linecode=1P_OH_AL_4/0_Zuzara_0_416_0_2_2_2_2_2_2_2_2_2_2_2_2_2_2_2_2_2_2_2_2_2_2_2_2_2_2_2_2_2

New Line.l(r:p1rdt1638lv-p1rlv1786) Units=km Length=0.001 bus1=p1rdt1638lv.1.2 bus2=p1rlv1786.1.2 switch=n enabled=y phases=2 Linecode=1P_OH_AL_4_Periwinkle_0_416_0_2_2_2_2_2_2_2_2_2_2_2_2_2_2_2_2_2_2_2_2_2_2_2_2_2_2_2_2_2

New Line.l(r:p1rdt1641lv-p1rlv1789) Units=km Length=0.001 bus1=p1rdt1641lv.1.2 bus2=p1rlv1789.1.2 switch=n enabled=y phases=2 Linecode=1P_OH_AL_4_Periwinkle_0_416_0_2_2_2_2_2_2_2_2_2_2_2_2_2_2_2_2_2_2_2_2_2_2_2_2_2_2_2_2_2

New Line.l(r:p1rdt1757lv-p1rlv1930) Units=km Length=0.0273475 bus1=p1rdt1757lv.1.2 bus2=p1rlv1930.1.2 switch=n enabled=y phases=2 Linecode=1P_OH_AL_4/0_Zuzara_0_416_0_2_2_2_2_2_2_2_2_2_2_2_2_2_2_2_2_2_2_2_2_2_2_2_2_2_2_2_2_2

New Line.l(r:p1rdt1757lv-p1rlv3258) Units=km Length=0.0273475 bus1=p1rdt1757lv.1.2 bus2=p1rlv3258.1.2 switch=n enabled=y phases=2 Linecode=1P_OH_AL_4/0_Zuzara_0_416_0_2_2_2_2_2_2_2_2_2_2_2_2_2_2_2_2_2_2_2_2_2_2_2_2_2_2_2_2_2

New Line.l(r:p1rdt1758lv-p1rlv1931) Units=km Length=0.0171916 bus1=p1rdt1758lv.1.2 bus2=p1rlv1931.1.2 switch=n enabled=y phases=2 Linecode=1P_OH_AL_2/0_Rucina_0_416_0_2_2_2_2_2_2_2_2_2_2_2_2_2_2_2_2_2_2_2_2_2_2_2_2_2_2_2_2_2

New Line.l(r:p1rdt1758lv-p1rlv12539) Units=km Length=0.0171916 bus1=p1rdt1758lv.1.2 bus2=p1rlv12539.1.2 switch=n enabled=y phases=2 Linecode=1P_OH_AL_2/0_Rucina_0_416_0_2_2_2_2_2_2_2_2_2_2_2_2_2_2_2_2_2_2_2_2_2_2_2_2_2_2_2_2_2

New Line.l(r:p1rdt1759lv-p1rlv1932) Units=km Length=0.001 bus1=p1rdt1759lv.1.2 bus2=p1rlv1932.1.2 switch=n enabled=y phases=2 Linecode=1P_OH_AL_4_Periwinkle_0_416_0_2_2_2_2_2_2_2_2_2_2_2_2_2_2_2_2_2_2_2_2_2_2_2_2_2_2_2_2_2

New Line.l(r:p1rdt1770lv-p1rlv1945) Units=km Length=0.001 bus1=p1rdt1770lv.1.2 bus2=p1rlv1945.1.2 switch=n enabled=y phases=2 Linecode=1P_OH_AL_4_Periwinkle_0_416_0_2_2_2_2_2_2_2_2_2_2_2_2_2_2_2_2_2_2_2_2_2_2_2_2_2_2_2_2_2

New Line.l(r:p1rdt1970lv-p1rlv6591) Units=km Length=0.043812500000000004 bus1=p1rdt1970lv.1.2 bus2=p1rlv6591.1.2 switch=n enabled=y phases=2 Linecode=1P_OH_AL_4/0_Zuzara_0_416_0_2_2_2_2_2_2_2_2_2_2_2_2_2_2_2_2_2_2_2_2_2_2_2_2_2_2_2_2_2

New Line.l(r:p1rdm4261-p1rlv2188) Units=km Length=0.027214400000000003 bus1=p1rdm4261.1.2 bus2=p1rlv2188.1.2 switch=n enabled=y phases=2 Linecode=1P_OH_AL_4/0_Zuzara_0_416_0_2_2_2_2_2_2_2_2_2_2_2_2_2_2_2_2_2_2_2_2_2_2_2_2_2_2_2_2_2

New Line.l(r:p1rdm4261-p1rdt1970lv) Units=km Length=0.0394296 bus1=p1rdt1970lv.1.2 bus2=p1rdm4261.1.2 switch=n enabled=y phases=2 Linecode=1P_OH_AL_4/0_Zuzara_0_416_0_2_2_2_2_2_2_2_2_2_2_2_2_2_2_2_2_2_2_2_2_2_2_2_2_2_2_2_2_2

New Line.l(r:p1rdm4262-p1rlv5830) Units=km Length=0.0223882 bus1=p1rdm4262.1.2 bus2=p1rlv5830.1.2 switch=n enabled=y phases=2 Linecode=1P_OH_AL_2/0_Rucina_0_416_0_2_2_2_2_2_2_2_2_2_2_2_2_2_2_2_2_2_2_2_2_2_2_2_2_2_2_2_2_2

New Line.l(r:p1rdm4262-p1rdt1970lv) Units=km Length=0.0197124 bus1=p1rdt1970lv.1.2 bus2=p1rdm4262.1.2 switch=n enabled=y phases=2 Linecode=1P_OH_AL_2/0_Rucina_0_416_0_2_2_2_2_2_2_2_2_2_2_2_2_2_2_2_2_2_2_2_2_2_2_2_2_2_2_2_2_2

New Line.l(r:p1rdt1971lv-p1rlv2189) Units=km Length=0.032368600000000004 bus1=p1rdt1971lv.1.2 bus2=p1rlv2189.1.2 switch=n enabled=y phases=2 Linecode=1P_OH_AL_4/0_Zuzara_0_416_0_2_2_2_2_2_2_2_2_2_2_2_2_2_2_2_2_2_2_2_2_2_2_2_2_2_2_2_2_2

New Line.l(r:p1rdt1971lv-p1rlv5042) Units=km Length=0.0325459 bus1=p1rdt1971lv.1.2 bus2=p1rlv5042.1.2 switch=n enabled=y phases=2 Linecode=1P_OH_AL_4/0_Zuzara_0_416_0_2_2_2_2_2_2_2_2_2_2_2_2_2_2_2_2_2_2_2_2_2_2_2_2_2_2_2_2_2

New Line.l(r:p1rdt1971lv-p1rlv13179) Units=km Length=0.00415119 bus1=p1rdt1971lv.1.2 bus2=p1rlv13179.1.2 switch=n enabled=y phases=2 Linecode=1P_OH_AL_2/0_Rucina_0_416_0_2_2_2_2_2_2_2_2_2_2_2_2_2_2_2_2_2_2_2_2_2_2_2_2_2_2_2_2_2

New Line.l(r:p1rdt1977lv-p1rlv2198) Units=km Length=0.045206 bus1=p1rdt1977lv.1.2 bus2=p1rlv2198.1.2 switch=n enabled=y phases=2 Linecode=1P_OH_AL_4/0_Zuzara_0_416_0_2_2_2_2_2_2_2_2_2_2_2_2_2_2_2_2_2_2_2_2_2_2_2_2_2_2_2_2_2

New Line.l(r:p1rdt1977lv-p1rlv6855) Units=km Length=0.00908618 bus1=p1rdt1977lv.1.2 bus2=p1rlv6855.1.2 switch=n enabled=y phases=2 Linecode=1P_OH_AL_2/0_Rucina_0_416_0_2_2_2_2_2_2_2_2_2_2_2_2_2_2_2_2_2_2_2_2_2_2_2_2_2_2_2_2_2

New Line.l(r:p1rdt1977lv-p1rlv10613) Units=km Length=0.044064500000000006 bus1=p1rdt1977lv.1.2 bus2=p1rlv10613.1.2 switch=n enabled=y phases=2 Linecode=1P_OH_AL_4/0_Zuzara_0_416_0_2_2_2_2_2_2_2_2_2_2_2_2_2_2_2_2_2_2_2_2_2_2_2_2_2_2_2_2_2

New Line.l(r:p1rdt2104lv-p1rlv2345) Units=km Length=0.0325085 bus1=p1rdt2104lv.1.2 bus2=p1rlv2345.1.2 switch=n enabled=y phases=2 Linecode=1P_OH_AL_4/0_Zuzara_0_416_0_2_2_2_2_2_2_2_2_2_2_2_2_2_2_2_2_2_2_2_2_2_2_2_2_2_2_2_2_2

New Line.l(r:p1rdt2104lv-p1rlv12652) Units=km Length=0.0418107 bus1=p1rdt2104lv.1.2 bus2=p1rlv12652.1.2 switch=n enabled=y phases=2 Linecode=1P_OH_AL_4/0_Zuzara_0_416_0_2_2_2_2_2_2_2_2_2_2_2_2_2_2_2_2_2_2_2_2_2_2_2_2_2_2_2_2_2

New Line.l(r:p1rdt2105lv-p1rlv2346) Units=km Length=0.0314553 bus1=p1rdt2105lv.1.2 bus2=p1rlv2346.1.2 switch=n enabled=y phases=2 Linecode=1P_OH_AL_4/0_Zuzara_0_416_0_2_2_2_2_2_2_2_2_2_2_2_2_2_2_2_2_2_2_2_2_2_2_2_2_2_2_2_2_2

New Line.l(r:p1rdt2105lv-p1rlv7550) Units=km Length=0.0314553 bus1=p1rdt2105lv.1.2 bus2=p1rlv7550.1.2 switch=n enabled=y phases=2 Linecode=1P_OH_AL_4/0_Zuzara_0_416_0_2_2_2_2_2_2_2_2_2_2_2_2_2_2_2_2_2_2_2_2_2_2_2_2_2_2_2_2_2

New Line.l(r:p1rdm4543-p1rlv2357) Units=km Length=0.024522500000000003 bus1=p1rdm4543.1.2 bus2=p1rlv2357.1.2 switch=n enabled=y phases=2 Linecode=1P_OH_AL_2/0_Rucina_0_416_0_2_2_2_2_2_2_2_2_2_2_2_2_2_2_2_2_2_2_2_2_2_2_2_2_2_2_2_2_2

New Line.l(r:p1rdm4543-p1rdt2116lv) Units=km Length=0.019985400000000004 bus1=p1rdt2116lv.1.2 bus2=p1rdm4543.1.2 switch=n enabled=y phases=2 Linecode=1P_OH_AL_2/0_Rucina_0_416_0_2_2_2_2_2_2_2_2_2_2_2_2_2_2_2_2_2_2_2_2_2_2_2_2_2_2_2_2_2

New Line.l(r:p1rdm4544-p1rlv3693) Units=km Length=0.0475998 bus1=p1rdm4544.1.2 bus2=p1rlv3693.1.2 switch=n enabled=y phases=2 Linecode=1P_OH_AL_4/0_Zuzara_0_416_0_2_2_2_2_2_2_2_2_2_2_2_2_2_2_2_2_2_2_2_2_2_2_2_2_2_2_2_2_2

New Line.l(r:p1rdm4544-p1rdt2116lv) Units=km Length=0.019990100000000004 bus1=p1rdt2116lv.1.2 bus2=p1rdm4544.1.2 switch=n enabled=y phases=2 Linecode=1P_OH_AL_2/0_Rucina_0_416_0_2_2_2_2_2_2_2_2_2_2_2_2_2_2_2_2_2_2_2_2_2_2_2_2_2_2_2_2_2

New Line.l(r:p1rdt2215lv-p1rlv2477) Units=km Length=0.0320341 bus1=p1rdt2215lv.1.2 bus2=p1rlv2477.1.2 switch=n enabled=y phases=2 Linecode=1P_OH_AL_4/0_Zuzara_0_416_0_2_2_2_2_2_2_2_2_2_2_2_2_2_2_2_2_2_2_2_2_2_2_2_2_2_2_2_2_2

New Line.l(r:p1rdt2215lv-p1rlv3684) Units=km Length=0.00971611 bus1=p1rdt2215lv.1.2 bus2=p1rlv3684.1.2 switch=n enabled=y phases=2 Linecode=1P_OH_AL_2/0_Rucina_0_416_0_2_2_2_2_2_2_2_2_2_2_2_2_2_2_2_2_2_2_2_2_2_2_2_2_2_2_2_2_2

New Line.l(r:p1rdt2215lv-p1rlv11291) Units=km Length=0.0223181 bus1=p1rdt2215lv.1.2 bus2=p1rlv11291.1.2 switch=n enabled=y phases=2 Linecode=1P_OH_AL_2/0_Rucina_0_416_0_2_2_2_2_2_2_2_2_2_2_2_2_2_2_2_2_2_2_2_2_2_2_2_2_2_2_2_2_2

New Line.l(r:p1rdt2218lv-p1rlv2481) Units=km Length=0.001 bus1=p1rdt2218lv.1.2 bus2=p1rlv2481.1.2 switch=n enabled=y phases=2 Linecode=1P_OH_AL_4_Periwinkle_0_416_0_2_2_2_2_2_2_2_2_2_2_2_2_2_2_2_2_2_2_2_2_2_2_2_2_2_2_2_2_2

New Line.l(r:p1rdt2219lv-p1rlv2482) Units=km Length=0.0463452 bus1=p1rdt2219lv.1.2 bus2=p1rlv2482.1.2 switch=n enabled=y phases=2 Linecode=1P_OH_AL_4/0_Zuzara_0_416_0_2_2_2_2_2_2_2_2_2_2_2_2_2_2_2_2_2_2_2_2_2_2_2_2_2_2_2_2_2

New Line.l(r:p1rdt2225lv-p1rlv2489) Units=km Length=0.001 bus1=p1rdt2225lv.1.2 bus2=p1rlv2489.1.2 switch=n enabled=y phases=2 Linecode=1P_OH_AL_4_Periwinkle_0_416_0_2_2_2_2_2_2_2_2_2_2_2_2_2_2_2_2_2_2_2_2_2_2_2_2_2_2_2_2_2

New Line.l(r:p1rdt2318lv-p1rlv2611) Units=km Length=0.0985042 bus1=p1rdt2318lv.1.2 bus2=p1rlv2611.1.2 switch=n enabled=y phases=2 Linecode=1P_OH_AL_4/0_Zuzara_0_416_0_2_2_2_2_2_2_2_2_2_2_2_2_2_2_2_2_2_2_2_2_2_2_2_2_2_2_2_2_2

New Line.l(r:p1rdt2320lv-p1rlv2613) Units=km Length=0.0154032 bus1=p1rdt2320lv.1.2 bus2=p1rlv2613.1.2 switch=n enabled=y phases=2 Linecode=1P_OH_AL_2/0_Rucina_0_416_0_2_2_2_2_2_2_2_2_2_2_2_2_2_2_2_2_2_2_2_2_2_2_2_2_2_2_2_2_2

New Line.l(r:p1rdt2320lv-p1rlv5294) Units=km Length=0.0154032 bus1=p1rdt2320lv.1.2 bus2=p1rlv5294.1.2 switch=n enabled=y phases=2 Linecode=1P_OH_AL_2/0_Rucina_0_416_0_2_2_2_2_2_2_2_2_2_2_2_2_2_2_2_2_2_2_2_2_2_2_2_2_2_2_2_2_2

New Line.l(r:p1rdt2329lv-p1rlv2623) Units=km Length=0.0173801 bus1=p1rdt2329lv.1.2 bus2=p1rlv2623.1.2 switch=n enabled=y phases=2 Linecode=1P_OH_AL_2/0_Rucina_0_416_0_2_2_2_2_2_2_2_2_2_2_2_2_2_2_2_2_2_2_2_2_2_2_2_2_2_2_2_2_2

New Line.l(r:p1rdt2424lv-p1rlv2743) Units=km Length=0.013896 bus1=p1rdt2424lv.1.2 bus2=p1rlv2743.1.2 switch=n enabled=y phases=2 Linecode=1P_OH_AL_2/0_Rucina_0_416_0_2_2_2_2_2_2_2_2_2_2_2_2_2_2_2_2_2_2_2_2_2_2_2_2_2_2_2_2_2

New Line.l(r:p1rdt2425lv-p1rlv2744) Units=km Length=0.0920535 bus1=p1rdt2425lv.1.2 bus2=p1rlv2744.1.2 switch=n enabled=y phases=2 Linecode=1P_OH_AL_4/0_Zuzara_0_416_0_2_2_2_2_2_2_2_2_2_2_2_2_2_2_2_2_2_2_2_2_2_2_2_2_2_2_2_2_2

New Line.l(r:p1rdt2430lv-p1rlv2751) Units=km Length=0.0232781 bus1=p1rdt2430lv.1.2 bus2=p1rlv2751.1.2 switch=n enabled=y phases=2 Linecode=1P_OH_AL_2/0_Rucina_0_416_0_2_2_2_2_2_2_2_2_2_2_2_2_2_2_2_2_2_2_2_2_2_2_2_2_2_2_2_2_2

New Line.l(r:p1rdt2430lv-p1rlv4354) Units=km Length=0.0232781 bus1=p1rdt2430lv.1.2 bus2=p1rlv4354.1.2 switch=n enabled=y phases=2 Linecode=1P_OH_AL_2/0_Rucina_0_416_0_2_2_2_2_2_2_2_2_2_2_2_2_2_2_2_2_2_2_2_2_2_2_2_2_2_2_2_2_2

New Line.l(r:p1rdt2436lv-p1rlv2758) Units=km Length=0.036171 bus1=p1rdt2436lv.1.2 bus2=p1rlv2758.1.2 switch=n enabled=y phases=2 Linecode=1P_OH_AL_4/0_Zuzara_0_416_0_2_2_2_2_2_2_2_2_2_2_2_2_2_2_2_2_2_2_2_2_2_2_2_2_2_2_2_2_2

New Line.l(r:p1rdm5357-p1rlv2887) Units=km Length=0.0160907 bus1=p1rdm5357.1.2 bus2=p1rlv2887.1.2 switch=n enabled=y phases=2 Linecode=1P_OH_AL_2/0_Rucina_0_416_0_2_2_2_2_2_2_2_2_2_2_2_2_2_2_2_2_2_2_2_2_2_2_2_2_2_2_2_2_2

New Line.l(r:p1rdm5357-p1rdt2544lv) Units=km Length=0.0180036 bus1=p1rdt2544lv.1.2 bus2=p1rdm5357.1.2 switch=n enabled=y phases=2 Linecode=1P_OH_AL_2/0_Rucina_0_416_0_2_2_2_2_2_2_2_2_2_2_2_2_2_2_2_2_2_2_2_2_2_2_2_2_2_2_2_2_2

New Line.l(r:p1rdm5358-p1rlv4625) Units=km Length=0.0495342 bus1=p1rdm5358.1.2 bus2=p1rlv4625.1.2 switch=n enabled=y phases=2 Linecode=1P_OH_AL_4/0_Zuzara_0_416_0_2_2_2_2_2_2_2_2_2_2_2_2_2_2_2_2_2_2_2_2_2_2_2_2_2_2_2_2_2

New Line.l(r:p1rdm5358-p1rdt2544lv) Units=km Length=0.0395196 bus1=p1rdt2544lv.1.2 bus2=p1rdm5358.1.2 switch=n enabled=y phases=2 Linecode=1P_OH_AL_4/0_Zuzara_0_416_0_2_2_2_2_2_2_2_2_2_2_2_2_2_2_2_2_2_2_2_2_2_2_2_2_2_2_2_2_2

New Line.l(r:p1rdt2545lv-p1rlv2888) Units=km Length=0.0507306 bus1=p1rdt2545lv.1.2 bus2=p1rlv2888.1.2 switch=n enabled=y phases=2 Linecode=1P_OH_AL_4/0_Zuzara_0_416_0_2_2_2_2_2_2_2_2_2_2_2_2_2_2_2_2_2_2_2_2_2_2_2_2_2_2_2_2_2

New Line.l(r:p1rdt2545lv-p1rlv8069) Units=km Length=0.0446856 bus1=p1rdt2545lv.1.2 bus2=p1rlv8069.1.2 switch=n enabled=y phases=2 Linecode=1P_OH_AL_4/0_Zuzara_0_416_0_2_2_2_2_2_2_2_2_2_2_2_2_2_2_2_2_2_2_2_2_2_2_2_2_2_2_2_2_2

New Line.l(r:p1rdt2545lv-p1rlv9114) Units=km Length=0.0591898 bus1=p1rdt2545lv.1.2 bus2=p1rlv9114.1.2 switch=n enabled=y phases=2 Linecode=1P_OH_AL_4/0_Zuzara_0_416_0_2_2_2_2_2_2_2_2_2_2_2_2_2_2_2_2_2_2_2_2_2_2_2_2_2_2_2_2_2

New Line.l(r:p1rdt2545lv-p1rlv11566) Units=km Length=0.0167183 bus1=p1rdt2545lv.1.2 bus2=p1rlv11566.1.2 switch=n enabled=y phases=2 Linecode=1P_OH_AL_2/0_Rucina_0_416_0_2_2_2_2_2_2_2_2_2_2_2_2_2_2_2_2_2_2_2_2_2_2_2_2_2_2_2_2_2

New Line.l(r:p1rdt2636lv-p1rlv3009) Units=km Length=0.047574 bus1=p1rdt2636lv.1.2 bus2=p1rlv3009.1.2 switch=n enabled=y phases=2 Linecode=1P_OH_AL_4/0_Zuzara_0_416_0_2_2_2_2_2_2_2_2_2_2_2_2_2_2_2_2_2_2_2_2_2_2_2_2_2_2_2_2_2

New Line.l(r:p1rdt2636lv-p1rlv3545) Units=km Length=0.047574 bus1=p1rdt2636lv.1.2 bus2=p1rlv3545.1.2 switch=n enabled=y phases=2 Linecode=1P_OH_AL_4/0_Zuzara_0_416_0_2_2_2_2_2_2_2_2_2_2_2_2_2_2_2_2_2_2_2_2_2_2_2_2_2_2_2_2_2

New Line.l(r:p1rdt2637lv-p1rlv3010) Units=km Length=0.001 bus1=p1rdt2637lv.1.2 bus2=p1rlv3010.1.2 switch=n enabled=y phases=2 Linecode=1P_OH_AL_4_Periwinkle_0_416_0_2_2_2_2_2_2_2_2_2_2_2_2_2_2_2_2_2_2_2_2_2_2_2_2_2_2_2_2_2
