New Line.l(r:p1rdt97lv-p1rlv100) Units=km Length=0.0803815 bus1=p1rdt97lv.1.2 bus2=p1rlv100.1.2 switch=n enabled=y phases=2 Linecode=1P_OH_AL_4/0_Zuzara_0_416_0_2_2_2_2_2_2_2_2_2_2_2_2_2_2_2_2_2_2_2_2_2_2_2_2_2_2_2_2_2

New Line.l(r:p1rdt98lv-p1rlv101) Units=km Length=0.0137217 bus1=p1rdt98lv.1.2 bus2=p1rlv101.1.2 switch=n enabled=y phases=2 Linecode=1P_OH_AL_2/0_Rucina_0_416_0_2_2_2_2_2_2_2_2_2_2_2_2_2_2_2_2_2_2_2_2_2_2_2_2_2_2_2_2_2

New Line.l(r:p1rdt98lv-p1rlv5096) Units=km Length=0.0122422 bus1=p1rdt98lv.1.2 bus2=p1rlv5096.1.2 switch=n enabled=y phases=2 Linecode=1P_OH_AL_2/0_Rucina_0_416_0_2_2_2_2_2_2_2_2_2_2_2_2_2_2_2_2_2_2_2_2_2_2_2_2_2_2_2_2_2

New Line.l(r:p1rdm293-p1rlv124) Units=km Length=0.0200311 bus1=p1rdm293.1.2 bus2=p1rlv124.1.2 switch=n enabled=y phases=2 Linecode=1P_OH_AL_2/0_Rucina_0_416_0_2_2_2_2_2_2_2_2_2_2_2_2_2_2_2_2_2_2_2_2_2_2_2_2_2_2_2_2_2

New Line.l(r:p1rdm293-p1rdt120lv) Units=km Length=0.0332036 bus1=p1rdt120lv.1.2 bus2=p1rdm293.1.2 switch=n enabled=y phases=2 Linecode=1P_OH_AL_4/0_Zuzara_0_416_0_2_2_2_2_2_2_2_2_2_2_2_2_2_2_2_2_2_2_2_2_2_2_2_2_2_2_2_2_2

New Line.l(r:p1rdm294-p1rlv3324) Units=km Length=0.02133 bus1=p1rdm294.1.2 bus2=p1rlv3324.1.2 switch=n enabled=y phases=2 Linecode=1P_OH_AL_2/0_Rucina_0_416_0_2_2_2_2_2_2_2_2_2_2_2_2_2_2_2_2_2_2_2_2_2_2_2_2_2_2_2_2_2

New Line.l(r:p1rdm294-p1rdt120lv) Units=km Length=0.0136191 bus1=p1rdt120lv.1.2 bus2=p1rdm294.1.2 switch=n enabled=y phases=2 Linecode=1P_OH_AL_2/0_Rucina_0_416_0_2_2_2_2_2_2_2_2_2_2_2_2_2_2_2_2_2_2_2_2_2_2_2_2_2_2_2_2_2

New Line.l(r:p1rdt121lv-p1rlv125) Units=km Length=0.0427208 bus1=p1rdt121lv.1.2 bus2=p1rlv125.1.2 switch=n enabled=y phases=2 Linecode=1P_OH_AL_4/0_Zuzara_0_416_0_2_2_2_2_2_2_2_2_2_2_2_2_2_2_2_2_2_2_2_2_2_2_2_2_2_2_2_2_2

New Line.l(r:p1rdt121lv-p1rlv3621) Units=km Length=0.026664000000000004 bus1=p1rdt121lv.1.2 bus2=p1rlv3621.1.2 switch=n enabled=y phases=2 Linecode=1P_OH_AL_2/0_Rucina_0_416_0_2_2_2_2_2_2_2_2_2_2_2_2_2_2_2_2_2_2_2_2_2_2_2_2_2_2_2_2_2

New Line.l(r:p1rdt121lv-p1rlv7066) Units=km Length=0.0223025 bus1=p1rdt121lv.1.2 bus2=p1rlv7066.1.2 switch=n enabled=y phases=2 Linecode=1P_OH_AL_2/0_Rucina_0_416_0_2_2_2_2_2_2_2_2_2_2_2_2_2_2_2_2_2_2_2_2_2_2_2_2_2_2_2_2_2

New Line.l(r:p1rdt121lv-p1rlv7200) Units=km Length=0.014805400000000002 bus1=p1rdt121lv.1.2 bus2=p1rlv7200.1.2 switch=n enabled=y phases=2 Linecode=1P_OH_AL_2/0_Rucina_0_416_0_2_2_2_2_2_2_2_2_2_2_2_2_2_2_2_2_2_2_2_2_2_2_2_2_2_2_2_2_2

New Line.l(r:p1rdt121lv-p1rlv13123) Units=km Length=0.00439453 bus1=p1rdt121lv.1.2 bus2=p1rlv13123.1.2 switch=n enabled=y phases=2 Linecode=1P_OH_AL_2/0_Rucina_0_416_0_2_2_2_2_2_2_2_2_2_2_2_2_2_2_2_2_2_2_2_2_2_2_2_2_2_2_2_2_2

New Line.l(r:p1rdt233lv-p1rlv240) Units=km Length=0.0656283 bus1=p1rdt233lv.1.2 bus2=p1rlv240.1.2 switch=n enabled=y phases=2 Linecode=1P_OH_AL_4/0_Zuzara_0_416_0_2_2_2_2_2_2_2_2_2_2_2_2_2_2_2_2_2_2_2_2_2_2_2_2_2_2_2_2_2

New Line.l(r:p1rdt233lv-p1rlv8511) Units=km Length=0.0370873 bus1=p1rdt233lv.1.2 bus2=p1rlv8511.1.2 switch=n enabled=y phases=2 Linecode=1P_OH_AL_4/0_Zuzara_0_416_0_2_2_2_2_2_2_2_2_2_2_2_2_2_2_2_2_2_2_2_2_2_2_2_2_2_2_2_2_2

New Line.l(r:p1rdt233lv-p1rlv10660) Units=km Length=0.0563776 bus1=p1rdt233lv.1.2 bus2=p1rlv10660.1.2 switch=n enabled=y phases=2 Linecode=1P_OH_AL_4/0_Zuzara_0_416_0_2_2_2_2_2_2_2_2_2_2_2_2_2_2_2_2_2_2_2_2_2_2_2_2_2_2_2_2_2

New Line.l(r:p1rdt233lv-p1rlv12051) Units=km Length=0.0385933 bus1=p1rdt233lv.1.2 bus2=p1rlv12051.1.2 switch=n enabled=y phases=2 Linecode=1P_OH_AL_4/0_Zuzara_0_416_0_2_2_2_2_2_2_2_2_2_2_2_2_2_2_2_2_2_2_2_2_2_2_2_2_2_2_2_2_2

New Line.l(r:p1rdt234lv-p1rlv241) Units=km Length=0.0222498 bus1=p1rdt234lv.1.2 bus2=p1rlv241.1.2 switch=n enabled=y phases=2 Linecode=1P_OH_AL_2/0_Rucina_0_416_0_2_2_2_2_2_2_2_2_2_2_2_2_2_2_2_2_2_2_2_2_2_2_2_2_2_2_2_2_2

New Line.l(r:p1rdt254lv-p1rlv261) Units=km Length=0.0192806 bus1=p1rdt254lv.1.2 bus2=p1rlv261.1.2 switch=n enabled=y phases=2 Linecode=1P_OH_AL_2/0_Rucina_0_416_0_2_2_2_2_2_2_2_2_2_2_2_2_2_2_2_2_2_2_2_2_2_2_2_2_2_2_2_2_2

New Line.l(r:p1rdt255lv-p1rlv262) Units=km Length=0.0403873 bus1=p1rdt255lv.1.2 bus2=p1rlv262.1.2 switch=n enabled=y phases=2 Linecode=1P_OH_AL_4/0_Zuzara_0_416_0_2_2_2_2_2_2_2_2_2_2_2_2_2_2_2_2_2_2_2_2_2_2_2_2_2_2_2_2_2

New Line.l(r:p1rdm614-p1rlv12602) Units=km Length=0.0670763 bus1=p1rdm614.1.2 bus2=p1rlv12602.1.2 switch=n enabled=y phases=2 Linecode=1P_OH_AL_4/0_Zuzara_0_416_0_2_2_2_2_2_2_2_2_2_2_2_2_2_2_2_2_2_2_2_2_2_2_2_2_2_2_2_2_2

New Line.l(r:p1rdm613-p1rlv10962) Units=km Length=0.0651845 bus1=p1rdm613.1.2 bus2=p1rlv10962.1.2 switch=n enabled=y phases=2 Linecode=1P_OH_AL_4/0_Zuzara_0_416_0_2_2_2_2_2_2_2_2_2_2_2_2_2_2_2_2_2_2_2_2_2_2_2_2_2_2_2_2_2

New Line.l(r:p1rdm613-p1rdm614) Units=km Length=0.019675600000000005 bus1=p1rdm614.1.2 bus2=p1rdm613.1.2 switch=n enabled=y phases=2 Linecode=1P_OH_AL_2/0_Rucina_0_416_0_2_2_2_2_2_2_2_2_2_2_2_2_2_2_2_2_2_2_2_2_2_2_2_2_2_2_2_2_2

New Line.l(r:p1rdm614-p1rdt255lv) Units=km Length=0.0196646 bus1=p1rdt255lv.1.2 bus2=p1rdm614.1.2 switch=n enabled=y phases=2 Linecode=1P_OH_AL_2/0_Rucina_0_416_0_2_2_2_2_2_2_2_2_2_2_2_2_2_2_2_2_2_2_2_2_2_2_2_2_2_2_2_2_2

New Line.l(r:p1rdm615-p1rlv13246) Units=km Length=0.0462383 bus1=p1rdm615.1.2 bus2=p1rlv13246.1.2 switch=n enabled=y phases=2 Linecode=1P_OH_AL_4/0_Zuzara_0_416_0_2_2_2_2_2_2_2_2_2_2_2_2_2_2_2_2_2_2_2_2_2_2_2_2_2_2_2_2_2

New Line.l(r:p1rdm615-p1rdt255lv) Units=km Length=0.0196657 bus1=p1rdt255lv.1.2 bus2=p1rdm615.1.2 switch=n enabled=y phases=2 Linecode=1P_OH_AL_2/0_Rucina_0_416_0_2_2_2_2_2_2_2_2_2_2_2_2_2_2_2_2_2_2_2_2_2_2_2_2_2_2_2_2_2

New Line.l(r:p1rdm616-p1rlv263) Units=km Length=0.0380397 bus1=p1rdm616.1.2 bus2=p1rlv263.1.2 switch=n enabled=y phases=2 Linecode=1P_OH_AL_4/0_Zuzara_0_416_0_2_2_2_2_2_2_2_2_2_2_2_2_2_2_2_2_2_2_2_2_2_2_2_2_2_2_2_2_2

New Line.l(r:p1rdm616-p1rdt256lv) Units=km Length=0.0162233 bus1=p1rdt256lv.1.2 bus2=p1rdm616.1.2 switch=n enabled=y phases=2 Linecode=1P_OH_AL_2/0_Rucina_0_416_0_2_2_2_2_2_2_2_2_2_2_2_2_2_2_2_2_2_2_2_2_2_2_2_2_2_2_2_2_2

New Line.l(r:p1rdm617-p1rlv9320) Units=km Length=0.0262362 bus1=p1rdm617.1.2 bus2=p1rlv9320.1.2 switch=n enabled=y phases=2 Linecode=1P_OH_AL_2/0_Rucina_0_416_0_2_2_2_2_2_2_2_2_2_2_2_2_2_2_2_2_2_2_2_2_2_2_2_2_2_2_2_2_2

New Line.l(r:p1rdm617-p1rdt256lv) Units=km Length=0.0330788 bus1=p1rdt256lv.1.2 bus2=p1rdm617.1.2 switch=n enabled=y phases=2 Linecode=1P_OH_AL_4/0_Zuzara_0_416_0_2_2_2_2_2_2_2_2_2_2_2_2_2_2_2_2_2_2_2_2_2_2_2_2_2_2_2_2_2

New Line.l(r:p1rdt379lv-p1rlv388) Units=km Length=0.0563153 bus1=p1rdt379lv.1.2 bus2=p1rlv388.1.2 switch=n enabled=y phases=2 Linecode=1P_OH_AL_4/0_Zuzara_0_416_0_2_2_2_2_2_2_2_2_2_2_2_2_2_2_2_2_2_2_2_2_2_2_2_2_2_2_2_2_2

New Line.l(r:p1rdm1161-p1rlv504) Units=km Length=0.0336521 bus1=p1rdm1161.1.2 bus2=p1rlv504.1.2 switch=n enabled=y phases=2 Linecode=1P_UG_AL_1/0_Brenau_0_416_0_2_2_2_2_2_2_2_2_2_2_2_2_2_2_2_2_2_2_2_2_2_2_2_2_2_2_2_2_2

New Line.l(r:p1rdm1161-p1rlv5231) Units=km Length=0.0140814 bus1=p1rdm1161.1.2 bus2=p1rlv5231.1.2 switch=n enabled=y phases=2 Linecode=1P_UG_AL_1/0_Brenau_0_416_0_2_2_2_2_2_2_2_2_2_2_2_2_2_2_2_2_2_2_2_2_2_2_2_2_2_2_2_2_2

New Line.l(r:p1rdm1161-p1rdt492lv) Units=km Length=0.00959019 bus1=p1rdt492lv.1.2 bus2=p1rdm1161.1.2 switch=n enabled=y phases=2 Linecode=1P_UG_AL_1/0_Brenau_0_416_0_2_2_2_2_2_2_2_2_2_2_2_2_2_2_2_2_2_2_2_2_2_2_2_2_2_2_2_2_2

New Line.l(r:p1rdm1162-p1rlv4135) Units=km Length=0.023920000000000004 bus1=p1rdm1162.1.2 bus2=p1rlv4135.1.2 switch=n enabled=y phases=2 Linecode=1P_UG_AL_1/0_Brenau_0_416_0_2_2_2_2_2_2_2_2_2_2_2_2_2_2_2_2_2_2_2_2_2_2_2_2_2_2_2_2_2

New Line.l(r:p1rdm1162-p1rdt492lv) Units=km Length=0.00959019 bus1=p1rdt492lv.1.2 bus2=p1rdm1162.1.2 switch=n enabled=y phases=2 Linecode=1P_UG_AL_1/0_Brenau_0_416_0_2_2_2_2_2_2_2_2_2_2_2_2_2_2_2_2_2_2_2_2_2_2_2_2_2_2_2_2_2

New Line.l(r:p1rdt494lv-p1rlv506) Units=km Length=0.030048400000000003 bus1=p1rdt494lv.1.2 bus2=p1rlv506.1.2 switch=n enabled=y phases=2 Linecode=1P_OH_AL_4/0_Zuzara_0_416_0_2_2_2_2_2_2_2_2_2_2_2_2_2_2_2_2_2_2_2_2_2_2_2_2_2_2_2_2_2

New Line.l(r:p1rdt505lv-p1rlv518) Units=km Length=0.0235438 bus1=p1rdt505lv.1.2 bus2=p1rlv518.1.2 switch=n enabled=y phases=2 Linecode=1P_OH_AL_2/0_Rucina_0_416_0_2_2_2_2_2_2_2_2_2_2_2_2_2_2_2_2_2_2_2_2_2_2_2_2_2_2_2_2_2

New Line.l(r:p1rdm1188-p1rlv1728) Units=km Length=0.024428 bus1=p1rdm1188.1.2 bus2=p1rlv1728.1.2 switch=n enabled=y phases=2 Linecode=1P_OH_AL_2/0_Rucina_0_416_0_2_2_2_2_2_2_2_2_2_2_2_2_2_2_2_2_2_2_2_2_2_2_2_2_2_2_2_2_2

New Line.l(r:p1rdm1188-p1rdt505lv) Units=km Length=0.0181721 bus1=p1rdt505lv.1.2 bus2=p1rdm1188.1.2 switch=n enabled=y phases=2 Linecode=1P_OH_AL_2/0_Rucina_0_416_0_2_2_2_2_2_2_2_2_2_2_2_2_2_2_2_2_2_2_2_2_2_2_2_2_2_2_2_2_2

New Line.l(r:p1rdt506lv-p1rlv519) Units=km Length=0.0214692 bus1=p1rdt506lv.1.2 bus2=p1rlv519.1.2 switch=n enabled=y phases=2 Linecode=1P_OH_AL_2/0_Rucina_0_416_0_2_2_2_2_2_2_2_2_2_2_2_2_2_2_2_2_2_2_2_2_2_2_2_2_2_2_2_2_2

New Line.l(r:p1rdt506lv-p1rlv11115) Units=km Length=0.0222496 bus1=p1rdt506lv.1.2 bus2=p1rlv11115.1.2 switch=n enabled=y phases=2 Linecode=1P_OH_AL_2/0_Rucina_0_416_0_2_2_2_2_2_2_2_2_2_2_2_2_2_2_2_2_2_2_2_2_2_2_2_2_2_2_2_2_2

New Line.l(r:p1rdt507lv-p1rlv520) Units=km Length=0.0346497 bus1=p1rdt507lv.1.2 bus2=p1rlv520.1.2 switch=n enabled=y phases=2 Linecode=1P_OH_AL_4/0_Zuzara_0_416_0_2_2_2_2_2_2_2_2_2_2_2_2_2_2_2_2_2_2_2_2_2_2_2_2_2_2_2_2_2

New Line.l(r:p1rdt507lv-p1rlv9590) Units=km Length=0.0332008 bus1=p1rdt507lv.1.2 bus2=p1rlv9590.1.2 switch=n enabled=y phases=2 Linecode=1P_OH_AL_4/0_Zuzara_0_416_0_2_2_2_2_2_2_2_2_2_2_2_2_2_2_2_2_2_2_2_2_2_2_2_2_2_2_2_2_2

New Line.l(r:p1rdm1192-p1rlv2423) Units=km Length=0.030259700000000004 bus1=p1rdm1192.1.2 bus2=p1rlv2423.1.2 switch=n enabled=y phases=2 Linecode=1P_OH_AL_4/0_Zuzara_0_416_0_2_2_2_2_2_2_2_2_2_2_2_2_2_2_2_2_2_2_2_2_2_2_2_2_2_2_2_2_2

New Line.l(r:p1rdm1192-p1rdt507lv) Units=km Length=0.0144391 bus1=p1rdt507lv.1.2 bus2=p1rdm1192.1.2 switch=n enabled=y phases=2 Linecode=1P_OH_AL_2/0_Rucina_0_416_0_2_2_2_2_2_2_2_2_2_2_2_2_2_2_2_2_2_2_2_2_2_2_2_2_2_2_2_2_2

New Line.l(r:p1rdt615lv-p1rlv632) Units=km Length=0.03679770000000001 bus1=p1rdt615lv.1.2 bus2=p1rlv632.1.2 switch=n enabled=y phases=2 Linecode=1P_OH_AL_4/0_Zuzara_0_416_0_2_2_2_2_2_2_2_2_2_2_2_2_2_2_2_2_2_2_2_2_2_2_2_2_2_2_2_2_2

New Line.l(r:p1rdt615lv-p1rlv2111) Units=km Length=0.07970640000000001 bus1=p1rdt615lv.1.2 bus2=p1rlv2111.1.2 switch=n enabled=y phases=2 Linecode=1P_OH_AL_4/0_Zuzara_0_416_0_2_2_2_2_2_2_2_2_2_2_2_2_2_2_2_2_2_2_2_2_2_2_2_2_2_2_2_2_2

New Line.l(r:p1rdt615lv-p1rlv13226) Units=km Length=0.0693776 bus1=p1rdt615lv.1.2 bus2=p1rlv13226.1.2 switch=n enabled=y phases=2 Linecode=1P_OH_AL_4/0_Zuzara_0_416_0_2_2_2_2_2_2_2_2_2_2_2_2_2_2_2_2_2_2_2_2_2_2_2_2_2_2_2_2_2

New Line.l(r:p1rdt615lv-p1rlv13489) Units=km Length=0.02491 bus1=p1rdt615lv.1.2 bus2=p1rlv13489.1.2 switch=n enabled=y phases=2 Linecode=1P_OH_AL_2/0_Rucina_0_416_0_2_2_2_2_2_2_2_2_2_2_2_2_2_2_2_2_2_2_2_2_2_2_2_2_2_2_2_2_2

New Line.l(r:p1rdt616lv-p1rlv633) Units=km Length=0.032887700000000006 bus1=p1rdt616lv.1.2 bus2=p1rlv633.1.2 switch=n enabled=y phases=2 Linecode=1P_OH_AL_4/0_Zuzara_0_416_0_2_2_2_2_2_2_2_2_2_2_2_2_2_2_2_2_2_2_2_2_2_2_2_2_2_2_2_2_2

New Line.l(r:p1rdt617lv-p1rlv634) Units=km Length=0.0575869 bus1=p1rdt617lv.1.2 bus2=p1rlv634.1.2 switch=n enabled=y phases=2 Linecode=1P_OH_AL_4/0_Zuzara_0_416_0_2_2_2_2_2_2_2_2_2_2_2_2_2_2_2_2_2_2_2_2_2_2_2_2_2_2_2_2_2

New Line.l(r:p1rdt618lv-p1rlv635) Units=km Length=0.0070282 bus1=p1rdt618lv.1.2 bus2=p1rlv635.1.2 switch=n enabled=y phases=2 Linecode=1P_OH_AL_2/0_Rucina_0_416_0_2_2_2_2_2_2_2_2_2_2_2_2_2_2_2_2_2_2_2_2_2_2_2_2_2_2_2_2_2

New Line.l(r:p1rdt618lv-p1rlv795) Units=km Length=0.0070282 bus1=p1rdt618lv.1.2 bus2=p1rlv795.1.2 switch=n enabled=y phases=2 Linecode=1P_OH_AL_2/0_Rucina_0_416_0_2_2_2_2_2_2_2_2_2_2_2_2_2_2_2_2_2_2_2_2_2_2_2_2_2_2_2_2_2

New Line.l(r:p1rdm1457-p1rlv647) Units=km Length=0.0803944 bus1=p1rdm1457.1.2 bus2=p1rlv647.1.2 switch=n enabled=y phases=2 Linecode=1P_OH_AL_4/0_Zuzara_0_416_0_2_2_2_2_2_2_2_2_2_2_2_2_2_2_2_2_2_2_2_2_2_2_2_2_2_2_2_2_2

New Line.l(r:p1rdm1457-p1rdt628lv) Units=km Length=0.0190085 bus1=p1rdt628lv.1.2 bus2=p1rdm1457.1.2 switch=n enabled=y phases=2 Linecode=1P_OH_AL_2/0_Rucina_0_416_0_2_2_2_2_2_2_2_2_2_2_2_2_2_2_2_2_2_2_2_2_2_2_2_2_2_2_2_2_2

New Line.l(r:p1rdm1458-p1rlv4705) Units=km Length=0.0483984 bus1=p1rdm1458.1.2 bus2=p1rlv4705.1.2 switch=n enabled=y phases=2 Linecode=1P_OH_AL_4/0_Zuzara_0_416_0_2_2_2_2_2_2_2_2_2_2_2_2_2_2_2_2_2_2_2_2_2_2_2_2_2_2_2_2_2

New Line.l(r:p1rdm1458-p1rdt628lv) Units=km Length=0.0190051 bus1=p1rdt628lv.1.2 bus2=p1rdm1458.1.2 switch=n enabled=y phases=2 Linecode=1P_OH_AL_2/0_Rucina_0_416_0_2_2_2_2_2_2_2_2_2_2_2_2_2_2_2_2_2_2_2_2_2_2_2_2_2_2_2_2_2

New Line.l(r:p1rdt632lv-p1rlv651) Units=km Length=0.0815512 bus1=p1rdt632lv.1.2 bus2=p1rlv651.1.2 switch=n enabled=y phases=2 Linecode=1P_OH_AL_4/0_Zuzara_0_416_0_2_2_2_2_2_2_2_2_2_2_2_2_2_2_2_2_2_2_2_2_2_2_2_2_2_2_2_2_2

New Line.l(r:p1rdm1466-p1rlv11097) Units=km Length=0.10007500000000001 bus1=p1rdm1466.1.2 bus2=p1rlv11097.1.2 switch=n enabled=y phases=2 Linecode=1P_OH_AL_4/0_Zuzara_0_416_0_2_2_2_2_2_2_2_2_2_2_2_2_2_2_2_2_2_2_2_2_2_2_2_2_2_2_2_2_2

New Line.l(r:p1rdm1466-p1rdt632lv) Units=km Length=0.0198999 bus1=p1rdt632lv.1.2 bus2=p1rdm1466.1.2 switch=n enabled=y phases=2 Linecode=1P_OH_AL_2/0_Rucina_0_416_0_2_2_2_2_2_2_2_2_2_2_2_2_2_2_2_2_2_2_2_2_2_2_2_2_2_2_2_2_2

New Line.l(r:p1rdt640lv-p1rlv661) Units=km Length=0.0243943 bus1=p1rdt640lv.1.2 bus2=p1rlv661.1.2 switch=n enabled=y phases=2 Linecode=1P_OH_AL_2/0_Rucina_0_416_0_2_2_2_2_2_2_2_2_2_2_2_2_2_2_2_2_2_2_2_2_2_2_2_2_2_2_2_2_2

New Line.l(r:p1rdt640lv-p1rlv11240) Units=km Length=0.024541 bus1=p1rdt640lv.1.2 bus2=p1rlv11240.1.2 switch=n enabled=y phases=2 Linecode=1P_OH_AL_2/0_Rucina_0_416_0_2_2_2_2_2_2_2_2_2_2_2_2_2_2_2_2_2_2_2_2_2_2_2_2_2_2_2_2_2

New Line.l(r:p1rdt641lv-p1rlv662) Units=km Length=0.039321100000000005 bus1=p1rdt641lv.1.2 bus2=p1rlv662.1.2 switch=n enabled=y phases=2 Linecode=1P_OH_AL_4/0_Zuzara_0_416_0_2_2_2_2_2_2_2_2_2_2_2_2_2_2_2_2_2_2_2_2_2_2_2_2_2_2_2_2_2

New Line.l(r:p1rdt641lv-p1rlv12213) Units=km Length=0.039321100000000005 bus1=p1rdt641lv.1.2 bus2=p1rlv12213.1.2 switch=n enabled=y phases=2 Linecode=1P_OH_AL_4/0_Zuzara_0_416_0_2_2_2_2_2_2_2_2_2_2_2_2_2_2_2_2_2_2_2_2_2_2_2_2_2_2_2_2_2

New Line.l(r:p1rdt769lv-p1rlv804) Units=km Length=0.031339 bus1=p1rdt769lv.1.2 bus2=p1rlv804.1.2 switch=n enabled=y phases=2 Linecode=1P_OH_AL_4/0_Zuzara_0_416_0_2_2_2_2_2_2_2_2_2_2_2_2_2_2_2_2_2_2_2_2_2_2_2_2_2_2_2_2_2

New Line.l(r:p1rdt773lv-p1rlv808) Units=km Length=0.001 bus1=p1rdt773lv.1.2 bus2=p1rlv808.1.2 switch=n enabled=y phases=2 Linecode=1P_OH_AL_4_Periwinkle_0_416_0_2_2_2_2_2_2_2_2_2_2_2_2_2_2_2_2_2_2_2_2_2_2_2_2_2_2_2_2_2

New Line.l(r:p1rdm1788-p1rlv818) Units=km Length=0.0446749 bus1=p1rdm1788.1.2 bus2=p1rlv818.1.2 switch=n enabled=y phases=2 Linecode=1P_OH_AL_4/0_Zuzara_0_416_0_2_2_2_2_2_2_2_2_2_2_2_2_2_2_2_2_2_2_2_2_2_2_2_2_2_2_2_2_2

New Line.l(r:p1rdm1789-p1rlv2004) Units=km Length=0.0317169 bus1=p1rdm1789.1.2 bus2=p1rlv2004.1.2 switch=n enabled=y phases=2 Linecode=1P_OH_AL_4/0_Zuzara_0_416_0_2_2_2_2_2_2_2_2_2_2_2_2_2_2_2_2_2_2_2_2_2_2_2_2_2_2_2_2_2

New Line.l(r:p1rdm1788-p1rdm1789) Units=km Length=0.0184094 bus1=p1rdm1788.1.2 bus2=p1rdm1789.1.2 switch=n enabled=y phases=2 Linecode=1P_OH_AL_2/0_Rucina_0_416_0_2_2_2_2_2_2_2_2_2_2_2_2_2_2_2_2_2_2_2_2_2_2_2_2_2_2_2_2_2

New Line.l(r:p1rdm1788-p1rdt783lv) Units=km Length=0.0184099 bus1=p1rdt783lv.1.2 bus2=p1rdm1788.1.2 switch=n enabled=y phases=2 Linecode=1P_OH_AL_2/0_Rucina_0_416_0_2_2_2_2_2_2_2_2_2_2_2_2_2_2_2_2_2_2_2_2_2_2_2_2_2_2_2_2_2

New Line.l(r:p1rdm1790-p1rlv6679) Units=km Length=0.0393754 bus1=p1rdm1790.1.2 bus2=p1rlv6679.1.2 switch=n enabled=y phases=2 Linecode=1P_OH_AL_4/0_Zuzara_0_416_0_2_2_2_2_2_2_2_2_2_2_2_2_2_2_2_2_2_2_2_2_2_2_2_2_2_2_2_2_2

New Line.l(r:p1rdm1790-p1rdt783lv) Units=km Length=0.0184094 bus1=p1rdt783lv.1.2 bus2=p1rdm1790.1.2 switch=n enabled=y phases=2 Linecode=1P_OH_AL_2/0_Rucina_0_416_0_2_2_2_2_2_2_2_2_2_2_2_2_2_2_2_2_2_2_2_2_2_2_2_2_2_2_2_2_2

New Line.l(r:p1rdt784lv-p1rlv819) Units=km Length=0.001 bus1=p1rdt784lv.1.2 bus2=p1rlv819.1.2 switch=n enabled=y phases=2 Linecode=1P_OH_AL_4_Periwinkle_0_416_0_2_2_2_2_2_2_2_2_2_2_2_2_2_2_2_2_2_2_2_2_2_2_2_2_2_2_2_2_2

New Line.l(r:p1rdt785lv-p1rlv820) Units=km Length=0.0067211 bus1=p1rdt785lv.1.2 bus2=p1rlv820.1.2 switch=n enabled=y phases=2 Linecode=1P_OH_AL_2/0_Rucina_0_416_0_2_2_2_2_2_2_2_2_2_2_2_2_2_2_2_2_2_2_2_2_2_2_2_2_2_2_2_2_2

New Line.l(r:p1rdt785lv-p1rlv12081) Units=km Length=0.0067211 bus1=p1rdt785lv.1.2 bus2=p1rlv12081.1.2 switch=n enabled=y phases=2 Linecode=1P_OH_AL_2/0_Rucina_0_416_0_2_2_2_2_2_2_2_2_2_2_2_2_2_2_2_2_2_2_2_2_2_2_2_2_2_2_2_2_2

New Line.l(r:p1rdt786lv-p1rlv821) Units=km Length=0.001 bus1=p1rdt786lv.1.2 bus2=p1rlv821.1.2 switch=n enabled=y phases=2 Linecode=1P_OH_AL_4_Periwinkle_0_416_0_2_2_2_2_2_2_2_2_2_2_2_2_2_2_2_2_2_2_2_2_2_2_2_2_2_2_2_2_2

New Line.l(r:p1rdt886lv-p1rlv932) Units=km Length=0.0287294 bus1=p1rdt886lv.1.2 bus2=p1rlv932.1.2 switch=n enabled=y phases=2 Linecode=1P_OH_AL_4/0_Zuzara_0_416_0_2_2_2_2_2_2_2_2_2_2_2_2_2_2_2_2_2_2_2_2_2_2_2_2_2_2_2_2_2

New Line.l(r:p1rdt900lv-p1rlv946) Units=km Length=0.0305812 bus1=p1rdt900lv.1.2 bus2=p1rlv946.1.2 switch=n enabled=y phases=2 Linecode=1P_OH_AL_4/0_Zuzara_0_416_0_2_2_2_2_2_2_2_2_2_2_2_2_2_2_2_2_2_2_2_2_2_2_2_2_2_2_2_2_2

New Line.l(r:p1rdm2062-p1rlv954) Units=km Length=0.0204747 bus1=p1rdm2062.1.2 bus2=p1rlv954.1.2 switch=n enabled=y phases=2 Linecode=1P_OH_AL_2/0_Rucina_0_416_0_2_2_2_2_2_2_2_2_2_2_2_2_2_2_2_2_2_2_2_2_2_2_2_2_2_2_2_2_2

New Line.l(r:p1rdm2062-p1rlv7335) Units=km Length=0.026229 bus1=p1rdm2062.1.2 bus2=p1rlv7335.1.2 switch=n enabled=y phases=2 Linecode=1P_OH_AL_2/0_Rucina_0_416_0_2_2_2_2_2_2_2_2_2_2_2_2_2_2_2_2_2_2_2_2_2_2_2_2_2_2_2_2_2

New Line.l(r:p1rdm2062-p1rdt908lv) Units=km Length=0.019571 bus1=p1rdt908lv.1.2 bus2=p1rdm2062.1.2 switch=n enabled=y phases=2 Linecode=1P_OH_AL_2/0_Rucina_0_416_0_2_2_2_2_2_2_2_2_2_2_2_2_2_2_2_2_2_2_2_2_2_2_2_2_2_2_2_2_2

New Line.l(r:p1rdm2063-p1rlv5905) Units=km Length=0.0212399 bus1=p1rdm2063.1.2 bus2=p1rlv5905.1.2 switch=n enabled=y phases=2 Linecode=1P_OH_AL_2/0_Rucina_0_416_0_2_2_2_2_2_2_2_2_2_2_2_2_2_2_2_2_2_2_2_2_2_2_2_2_2_2_2_2_2

New Line.l(r:p1rdm2063-p1rlv11376) Units=km Length=0.0209596 bus1=p1rdm2063.1.2 bus2=p1rlv11376.1.2 switch=n enabled=y phases=2 Linecode=1P_OH_AL_2/0_Rucina_0_416_0_2_2_2_2_2_2_2_2_2_2_2_2_2_2_2_2_2_2_2_2_2_2_2_2_2_2_2_2_2

New Line.l(r:p1rdm2063-p1rdt908lv) Units=km Length=0.0545715 bus1=p1rdt908lv.1.2 bus2=p1rdm2063.1.2 switch=n enabled=y phases=2 Linecode=1P_OH_AL_4/0_Zuzara_0_416_0_2_2_2_2_2_2_2_2_2_2_2_2_2_2_2_2_2_2_2_2_2_2_2_2_2_2_2_2_2

New Line.l(r:p1rdm2066-p1rlv955) Units=km Length=0.0241231 bus1=p1rdm2066.1.2 bus2=p1rlv955.1.2 switch=n enabled=y phases=2 Linecode=1P_OH_AL_2/0_Rucina_0_416_0_2_2_2_2_2_2_2_2_2_2_2_2_2_2_2_2_2_2_2_2_2_2_2_2_2_2_2_2_2

New Line.l(r:p1rdm2066-p1rdt909lv) Units=km Length=0.0198418 bus1=p1rdt909lv.1.2 bus2=p1rdm2066.1.2 switch=n enabled=y phases=2 Linecode=1P_OH_AL_2/0_Rucina_0_416_0_2_2_2_2_2_2_2_2_2_2_2_2_2_2_2_2_2_2_2_2_2_2_2_2_2_2_2_2_2

New Line.l(r:p1rdm2067-p1rlv9727) Units=km Length=0.0202995 bus1=p1rdm2067.1.2 bus2=p1rlv9727.1.2 switch=n enabled=y phases=2 Linecode=1P_OH_AL_2/0_Rucina_0_416_0_2_2_2_2_2_2_2_2_2_2_2_2_2_2_2_2_2_2_2_2_2_2_2_2_2_2_2_2_2

New Line.l(r:p1rdm2067-p1rdt909lv) Units=km Length=0.0423396 bus1=p1rdt909lv.1.2 bus2=p1rdm2067.1.2 switch=n enabled=y phases=2 Linecode=1P_OH_AL_4/0_Zuzara_0_416_0_2_2_2_2_2_2_2_2_2_2_2_2_2_2_2_2_2_2_2_2_2_2_2_2_2_2_2_2_2

New Line.l(r:p1rdt910lv-p1rlv956) Units=km Length=0.001 bus1=p1rdt910lv.1.2 bus2=p1rlv956.1.2 switch=n enabled=y phases=2 Linecode=1P_OH_AL_4_Periwinkle_0_416_0_2_2_2_2_2_2_2_2_2_2_2_2_2_2_2_2_2_2_2_2_2_2_2_2_2_2_2_2_2

New Line.l(r:p1rdt1009lv-p1rlv1062) Units=km Length=0.014474 bus1=p1rdt1009lv.1.2 bus2=p1rlv1062.1.2 switch=n enabled=y phases=2 Linecode=1P_OH_AL_2/0_Rucina_0_416_0_2_2_2_2_2_2_2_2_2_2_2_2_2_2_2_2_2_2_2_2_2_2_2_2_2_2_2_2_2

New Line.l(r:p1rdt1009lv-p1rlv8510) Units=km Length=0.014474 bus1=p1rdt1009lv.1.2 bus2=p1rlv8510.1.2 switch=n enabled=y phases=2 Linecode=1P_OH_AL_2/0_Rucina_0_416_0_2_2_2_2_2_2_2_2_2_2_2_2_2_2_2_2_2_2_2_2_2_2_2_2_2_2_2_2_2

New Line.l(r:p1rdt1019lv-p1rlv1076) Units=km Length=0.017844 bus1=p1rdt1019lv.1.2 bus2=p1rlv1076.1.2 switch=n enabled=y phases=2 Linecode=1P_OH_AL_2/0_Rucina_0_416_0_2_2_2_2_2_2_2_2_2_2_2_2_2_2_2_2_2_2_2_2_2_2_2_2_2_2_2_2_2

New Line.l(r:p1rdt1019lv-p1rlv12078) Units=km Length=0.017844 bus1=p1rdt1019lv.1.2 bus2=p1rlv12078.1.2 switch=n enabled=y phases=2 Linecode=1P_OH_AL_2/0_Rucina_0_416_0_2_2_2_2_2_2_2_2_2_2_2_2_2_2_2_2_2_2_2_2_2_2_2_2_2_2_2_2_2

New Line.l(r:p1rdt1020lv-p1rlv1077) Units=km Length=0.0599687 bus1=p1rdt1020lv.1.2 bus2=p1rlv1077.1.2 switch=n enabled=y phases=2 Linecode=1P_OH_AL_4/0_Zuzara_0_416_0_2_2_2_2_2_2_2_2_2_2_2_2_2_2_2_2_2_2_2_2_2_2_2_2_2_2_2_2_2

New Line.l(r:p1rdm2296-p1rlv12601) Units=km Length=0.0464026 bus1=p1rdm2296.1.2 bus2=p1rlv12601.1.2 switch=n enabled=y phases=2 Linecode=1P_OH_AL_4/0_Zuzara_0_416_0_2_2_2_2_2_2_2_2_2_2_2_2_2_2_2_2_2_2_2_2_2_2_2_2_2_2_2_2_2

New Line.l(r:p1rdm2296-p1rdt1020lv) Units=km Length=0.01932 bus1=p1rdt1020lv.1.2 bus2=p1rdm2296.1.2 switch=n enabled=y phases=2 Linecode=1P_OH_AL_2/0_Rucina_0_416_0_2_2_2_2_2_2_2_2_2_2_2_2_2_2_2_2_2_2_2_2_2_2_2_2_2_2_2_2_2

New Line.l(r:p1rdt1128lv-p1rlv1191) Units=km Length=0.0226834 bus1=p1rdt1128lv.1.2 bus2=p1rlv1191.1.2 switch=n enabled=y phases=2 Linecode=1P_OH_AL_2/0_Rucina_0_416_0_2_2_2_2_2_2_2_2_2_2_2_2_2_2_2_2_2_2_2_2_2_2_2_2_2_2_2_2_2

New Line.l(r:p1rdt1136lv-p1rlv1202) Units=km Length=0.00662277 bus1=p1rdt1136lv.1.2 bus2=p1rlv1202.1.2 switch=n enabled=y phases=2 Linecode=1P_OH_AL_2/0_Rucina_0_416_0_2_2_2_2_2_2_2_2_2_2_2_2_2_2_2_2_2_2_2_2_2_2_2_2_2_2_2_2_2

New Line.l(r:p1rdt1136lv-p1rlv6681) Units=km Length=0.00662277 bus1=p1rdt1136lv.1.2 bus2=p1rlv6681.1.2 switch=n enabled=y phases=2 Linecode=1P_OH_AL_2/0_Rucina_0_416_0_2_2_2_2_2_2_2_2_2_2_2_2_2_2_2_2_2_2_2_2_2_2_2_2_2_2_2_2_2

New Line.l(r:p1rdt1137lv-p1rlv1203) Units=km Length=0.0480687 bus1=p1rdt1137lv.1.2 bus2=p1rlv1203.1.2 switch=n enabled=y phases=2 Linecode=1P_OH_AL_4/0_Zuzara_0_416_0_2_2_2_2_2_2_2_2_2_2_2_2_2_2_2_2_2_2_2_2_2_2_2_2_2_2_2_2_2

New Line.l(r:p1rdt1138lv-p1rlv1204) Units=km Length=0.0106925 bus1=p1rdt1138lv.1.2 bus2=p1rlv1204.1.2 switch=n enabled=y phases=2 Linecode=1P_OH_AL_2/0_Rucina_0_416_0_2_2_2_2_2_2_2_2_2_2_2_2_2_2_2_2_2_2_2_2_2_2_2_2_2_2_2_2_2

New Line.l(r:p1rdt1138lv-p1rlv2008) Units=km Length=0.0106925 bus1=p1rdt1138lv.1.2 bus2=p1rlv2008.1.2 switch=n enabled=y phases=2 Linecode=1P_OH_AL_2/0_Rucina_0_416_0_2_2_2_2_2_2_2_2_2_2_2_2_2_2_2_2_2_2_2_2_2_2_2_2_2_2_2_2_2

New Line.l(r:p1rdt1228lv-p1rlv1307) Units=km Length=0.055959300000000003 bus1=p1rdt1228lv.1.2 bus2=p1rlv1307.1.2 switch=n enabled=y phases=2 Linecode=1P_OH_AL_4/0_Zuzara_0_416_0_2_2_2_2_2_2_2_2_2_2_2_2_2_2_2_2_2_2_2_2_2_2_2_2_2_2_2_2_2

New Line.l(r:p1rdt1228lv-p1rlv13488) Units=km Length=0.055959300000000003 bus1=p1rdt1228lv.1.2 bus2=p1rlv13488.1.2 switch=n enabled=y phases=2 Linecode=1P_OH_AL_4/0_Zuzara_0_416_0_2_2_2_2_2_2_2_2_2_2_2_2_2_2_2_2_2_2_2_2_2_2_2_2_2_2_2_2_2

New Line.l(r:p1rdt1240lv-p1rlv1320) Units=km Length=0.001 bus1=p1rdt1240lv.1.2 bus2=p1rlv1320.1.2 switch=n enabled=y phases=2 Linecode=1P_OH_AL_4_Periwinkle_0_416_0_2_2_2_2_2_2_2_2_2_2_2_2_2_2_2_2_2_2_2_2_2_2_2_2_2_2_2_2_2

New Line.l(r:p1rdt1251lv-p1rlv1331) Units=km Length=0.0425725 bus1=p1rdt1251lv.1.2 bus2=p1rlv1331.1.2 switch=n enabled=y phases=2 Linecode=1P_OH_AL_4/0_Zuzara_0_416_0_2_2_2_2_2_2_2_2_2_2_2_2_2_2_2_2_2_2_2_2_2_2_2_2_2_2_2_2_2

New Line.l(r:p1rdt1371lv-p1rlv1470) Units=km Length=0.00828458 bus1=p1rdt1371lv.1.2 bus2=p1rlv1470.1.2 switch=n enabled=y phases=2 Linecode=1P_OH_AL_2/0_Rucina_0_416_0_2_2_2_2_2_2_2_2_2_2_2_2_2_2_2_2_2_2_2_2_2_2_2_2_2_2_2_2_2

New Line.l(r:p1rdt1371lv-p1rlv4688) Units=km Length=0.00828458 bus1=p1rdt1371lv.1.2 bus2=p1rlv4688.1.2 switch=n enabled=y phases=2 Linecode=1P_OH_AL_2/0_Rucina_0_416_0_2_2_2_2_2_2_2_2_2_2_2_2_2_2_2_2_2_2_2_2_2_2_2_2_2_2_2_2_2

New Line.l(r:p1rdt1385lv-p1rlv1486) Units=km Length=0.008824800000000002 bus1=p1rdt1385lv.1.2 bus2=p1rlv1486.1.2 switch=n enabled=y phases=2 Linecode=1P_OH_AL_2/0_Rucina_0_416_0_2_2_2_2_2_2_2_2_2_2_2_2_2_2_2_2_2_2_2_2_2_2_2_2_2_2_2_2_2

New Line.l(r:p1rdt1385lv-p1rlv13385) Units=km Length=0.008824800000000002 bus1=p1rdt1385lv.1.2 bus2=p1rlv13385.1.2 switch=n enabled=y phases=2 Linecode=1P_OH_AL_2/0_Rucina_0_416_0_2_2_2_2_2_2_2_2_2_2_2_2_2_2_2_2_2_2_2_2_2_2_2_2_2_2_2_2_2

New Line.l(r:p1rdt1476lv-p1rlv1591) Units=km Length=0.001 bus1=p1rdt1476lv.1.2 bus2=p1rlv1591.1.2 switch=n enabled=y phases=2 Linecode=1P_OH_AL_4_Periwinkle_0_416_0_2_2_2_2_2_2_2_2_2_2_2_2_2_2_2_2_2_2_2_2_2_2_2_2_2_2_2_2_2

New Line.l(r:p1rdt1482lv-p1rlv1599) Units=km Length=0.0380803 bus1=p1rdt1482lv.1.2 bus2=p1rlv1599.1.2 switch=n enabled=y phases=2 Linecode=1P_OH_AL_4/0_Zuzara_0_416_0_2_2_2_2_2_2_2_2_2_2_2_2_2_2_2_2_2_2_2_2_2_2_2_2_2_2_2_2_2

New Line.l(r:p1rdm3278-p1rlv1609) Units=km Length=0.0245505 bus1=p1rdm3278.1.2 bus2=p1rlv1609.1.2 switch=n enabled=y phases=2 Linecode=1P_OH_AL_2/0_Rucina_0_416_0_2_2_2_2_2_2_2_2_2_2_2_2_2_2_2_2_2_2_2_2_2_2_2_2_2_2_2_2_2

New Line.l(r:p1rdm3278-p1rdt1490lv) Units=km Length=0.018766300000000003 bus1=p1rdt1490lv.1.2 bus2=p1rdm3278.1.2 switch=n enabled=y phases=2 Linecode=1P_OH_AL_2/0_Rucina_0_416_0_2_2_2_2_2_2_2_2_2_2_2_2_2_2_2_2_2_2_2_2_2_2_2_2_2_2_2_2_2

New Line.l(r:p1rdm3279-p1rlv4005) Units=km Length=0.02434 bus1=p1rdm3279.1.2 bus2=p1rlv4005.1.2 switch=n enabled=y phases=2 Linecode=1P_OH_AL_2/0_Rucina_0_416_0_2_2_2_2_2_2_2_2_2_2_2_2_2_2_2_2_2_2_2_2_2_2_2_2_2_2_2_2_2

New Line.l(r:p1rdm3279-p1rdt1490lv) Units=km Length=0.018766300000000003 bus1=p1rdt1490lv.1.2 bus2=p1rdm3279.1.2 switch=n enabled=y phases=2 Linecode=1P_OH_AL_2/0_Rucina_0_416_0_2_2_2_2_2_2_2_2_2_2_2_2_2_2_2_2_2_2_2_2_2_2_2_2_2_2_2_2_2

New Line.l(r:p1rdm3280-p1rlv1610) Units=km Length=0.0315402 bus1=p1rdm3280.1.2 bus2=p1rlv1610.1.2 switch=n enabled=y phases=2 Linecode=1P_OH_AL_4/0_Zuzara_0_416_0_2_2_2_2_2_2_2_2_2_2_2_2_2_2_2_2_2_2_2_2_2_2_2_2_2_2_2_2_2

New Line.l(r:p1rdm3280-p1rdt1491lv) Units=km Length=0.0195783 bus1=p1rdt1491lv.1.2 bus2=p1rdm3280.1.2 switch=n enabled=y phases=2 Linecode=1P_OH_AL_2/0_Rucina_0_416_0_2_2_2_2_2_2_2_2_2_2_2_2_2_2_2_2_2_2_2_2_2_2_2_2_2_2_2_2_2

New Line.l(r:p1rdm3281-p1rlv7893) Units=km Length=0.0310015 bus1=p1rdm3281.1.2 bus2=p1rlv7893.1.2 switch=n enabled=y phases=2 Linecode=1P_OH_AL_4/0_Zuzara_0_416_0_2_2_2_2_2_2_2_2_2_2_2_2_2_2_2_2_2_2_2_2_2_2_2_2_2_2_2_2_2

New Line.l(r:p1rdm3281-p1rdt1491lv) Units=km Length=0.019571 bus1=p1rdt1491lv.1.2 bus2=p1rdm3281.1.2 switch=n enabled=y phases=2 Linecode=1P_OH_AL_2/0_Rucina_0_416_0_2_2_2_2_2_2_2_2_2_2_2_2_2_2_2_2_2_2_2_2_2_2_2_2_2_2_2_2_2

New Line.l(r:p1rdt1492lv-p1rlv1611) Units=km Length=0.007719 bus1=p1rdt1492lv.1.2 bus2=p1rlv1611.1.2 switch=n enabled=y phases=2 Linecode=1P_OH_AL_2/0_Rucina_0_416_0_2_2_2_2_2_2_2_2_2_2_2_2_2_2_2_2_2_2_2_2_2_2_2_2_2_2_2_2_2

New Line.l(r:p1rdt1492lv-p1rlv13382) Units=km Length=0.007719 bus1=p1rdt1492lv.1.2 bus2=p1rlv13382.1.2 switch=n enabled=y phases=2 Linecode=1P_OH_AL_2/0_Rucina_0_416_0_2_2_2_2_2_2_2_2_2_2_2_2_2_2_2_2_2_2_2_2_2_2_2_2_2_2_2_2_2

New Line.l(r:p1rdt1493lv-p1rlv1612) Units=km Length=0.0515288 bus1=p1rdt1493lv.1.2 bus2=p1rlv1612.1.2 switch=n enabled=y phases=2 Linecode=1P_OH_AL_4/0_Zuzara_0_416_0_2_2_2_2_2_2_2_2_2_2_2_2_2_2_2_2_2_2_2_2_2_2_2_2_2_2_2_2_2

New Line.l(r:p1rdt1494lv-p1rlv7479) Units=km Length=0.0196222 bus1=p1rdt1494lv.1.2 bus2=p1rlv7479.1.2 switch=n enabled=y phases=2 Linecode=1P_OH_AL_2/0_Rucina_0_416_0_2_2_2_2_2_2_2_2_2_2_2_2_2_2_2_2_2_2_2_2_2_2_2_2_2_2_2_2_2

New Line.l(r:p1rdm3285-p1rlv1613) Units=km Length=0.0174105 bus1=p1rdm3285.1.2 bus2=p1rlv1613.1.2 switch=n enabled=y phases=2 Linecode=1P_OH_AL_2/0_Rucina_0_416_0_2_2_2_2_2_2_2_2_2_2_2_2_2_2_2_2_2_2_2_2_2_2_2_2_2_2_2_2_2

New Line.l(r:p1rdm3285-p1rdt1494lv) Units=km Length=0.0184838 bus1=p1rdt1494lv.1.2 bus2=p1rdm3285.1.2 switch=n enabled=y phases=2 Linecode=1P_OH_AL_2/0_Rucina_0_416_0_2_2_2_2_2_2_2_2_2_2_2_2_2_2_2_2_2_2_2_2_2_2_2_2_2_2_2_2_2

New Line.l(r:p1rdm3287-p1rlv7621) Units=km Length=0.016522400000000003 bus1=p1rdm3287.1.2 bus2=p1rlv7621.1.2 switch=n enabled=y phases=2 Linecode=1P_OH_AL_2/0_Rucina_0_416_0_2_2_2_2_2_2_2_2_2_2_2_2_2_2_2_2_2_2_2_2_2_2_2_2_2_2_2_2_2

New Line.l(r:p1rdm3287-p1rdt1494lv) Units=km Length=0.0322734 bus1=p1rdt1494lv.1.2 bus2=p1rdm3287.1.2 switch=n enabled=y phases=2 Linecode=1P_OH_AL_4/0_Zuzara_0_416_0_2_2_2_2_2_2_2_2_2_2_2_2_2_2_2_2_2_2_2_2_2_2_2_2_2_2_2_2_2

New Line.l(r:p1rdt1495lv-p1rlv6919) Units=km Length=0.0241124 bus1=p1rdt1495lv.1.2 bus2=p1rlv6919.1.2 switch=n enabled=y phases=2 Linecode=1P_OH_AL_2/0_Rucina_0_416_0_2_2_2_2_2_2_2_2_2_2_2_2_2_2_2_2_2_2_2_2_2_2_2_2_2_2_2_2_2

New Line.l(r:p1rdt1495lv-p1rlv8394) Units=km Length=0.012580900000000002 bus1=p1rdt1495lv.1.2 bus2=p1rlv8394.1.2 switch=n enabled=y phases=2 Linecode=1P_OH_AL_2/0_Rucina_0_416_0_2_2_2_2_2_2_2_2_2_2_2_2_2_2_2_2_2_2_2_2_2_2_2_2_2_2_2_2_2

New Line.l(r:p1rdm3288-p1rlv1614) Units=km Length=0.0199994 bus1=p1rdm3288.1.2 bus2=p1rlv1614.1.2 switch=n enabled=y phases=2 Linecode=1P_OH_AL_2/0_Rucina_0_416_0_2_2_2_2_2_2_2_2_2_2_2_2_2_2_2_2_2_2_2_2_2_2_2_2_2_2_2_2_2

New Line.l(r:p1rdm3288-p1rdt1495lv) Units=km Length=0.09618010000000002 bus1=p1rdt1495lv.1.2 bus2=p1rdm3288.1.2 switch=n enabled=y phases=2 Linecode=1P_OH_AL_4/0_Zuzara_0_416_0_2_2_2_2_2_2_2_2_2_2_2_2_2_2_2_2_2_2_2_2_2_2_2_2_2_2_2_2_2

New Line.l(r:p1rdm3291-p1rlv1615) Units=km Length=0.0448983 bus1=p1rdm3291.1.2 bus2=p1rlv1615.1.2 switch=n enabled=y phases=2 Linecode=1P_OH_AL_4/0_Zuzara_0_416_0_2_2_2_2_2_2_2_2_2_2_2_2_2_2_2_2_2_2_2_2_2_2_2_2_2_2_2_2_2
